data_1
_audit_creation_method   'vasp2cif'
_cell_length_a    17.52789999999977
_cell_length_b    17.52789999999977
_cell_length_c    15.0
_cell_angle_alpha    90.0
_cell_angle_beta    90.0
_cell_angle_gamma    119.99999999999916

_symmetry_space_group_name_H-M    'P 1'
loop_
_atom_site_label
_atom_site_type_symbol
_atom_site_fract_x
_atom_site_fract_y
_atom_site_fract_z
_atom_site_occupancy
B2   B   0.904750969612764   0.952173537057793   0.111003102710571   1.0000000
B2   B   0.904939732254543   0.095062288941453   0.111048890238779   1.0000000
B2   B   0.904980273925753   0.237884193047073   0.111047110894802   1.0000000
B2   B   0.905000861136124   0.380764999399678   0.111000497013323   1.0000000
B2   B   0.904929698831685   0.523656791883173   0.110987315951619   1.0000000
B2   B   0.904624159433529   0.666501939643379   0.111050931262878   1.0000000
B2   B   0.904307958799546   0.809055892076959   0.111027439279280   1.0000000
B2   B   0.047592751364218   0.952409269831785   0.111000723818377   1.0000000
B2   B   0.047828484138211   0.095251051583232   0.111003102710571   1.0000000
B2   B   0.047766930469550   0.238047308825777   0.110993718898966   1.0000000
B2   B   0.047556153911480   0.380863417175555   0.111010826339918   1.0000000
B2   B   0.047354937122295   0.523931957104606   0.111008338328023   1.0000000
B2   B   0.047342789486787   0.666846155434542   0.111018465008839   1.0000000
B2   B   0.047402062943199   0.809615295093816   0.110987134425688   1.0000000
B2   B   0.190386726102187   0.952599958252804   0.110987134425688   1.0000000
B2   B   0.190946129119044   0.095694062396450   0.111027439279280   1.0000000
B2   B   0.190830097096463   0.238229805280970   0.110988750194697   1.0000000
B2   B   0.190414199236838   0.381069303178599   0.110985297598807   1.0000000
B2   B   0.189555472467006   0.524213360255663   0.111050514613985   1.0000000
B2   B   0.189839513709188   0.667127984202925   0.111066999111647   1.0000000
B2   B   0.190152268980251   0.809849752215753   0.110995204909661   1.0000000
B2   B   0.333155865762456   0.952659231709216   0.111018465008839   1.0000000
B2   B   0.333500081553619   0.095377861762467   0.111050931262878   1.0000000
B2   B   0.334618930686063   0.238941433236729   0.111080900909943   1.0000000
B2   B   0.334561014929130   0.380694926663031   0.111024852726769   1.0000000
B2   B   0.332192112609244   0.526092171236109   0.111024226195315   1.0000000
B2   B   0.332201288360639   0.667800732836359   0.111083435891726   1.0000000
B2   B   0.332874036994074   0.810162507486816   0.111066999111647   1.0000000
B2   B   0.476070064092392   0.952647084073708   0.111008338328023   1.0000000
B2   B   0.476345229313825   0.095072322364311   0.110987315951619   1.0000000
B2   B   0.476704492143492   0.237453386581229   0.111065329573263   1.0000000
B2   B   0.479103667574528   0.381343823647475   0.111153265538919   1.0000000
B2   B   0.473909849960889   0.667809908587754   0.111024226195315   1.0000000
B2   B   0.475788660941335   0.810446548728997   0.111050514613985   1.0000000
B2   B   0.619138604020448   0.952445867284524   0.111010826339918   1.0000000
B2   B   0.619237021796326   0.095001160059872   0.111000497013323   1.0000000
B2   B   0.619556083384375   0.237509389420379   0.111002190233865   1.0000000
B2   B   0.620074041026079   0.379927980169925   0.111059717218327   1.0000000
B2   B   0.618658197548528   0.520898353622470   0.111153265538919   1.0000000
B2   B   0.619307094532973   0.665441006267868   0.111024852726769   1.0000000
B2   B   0.618932718017404   0.809587821959166   0.110985297598807   1.0000000
B2   B   0.761954712370226   0.952235090726453   0.110993718898966   1.0000000
B2   B   0.762117828148931   0.095021747270243   0.111047110894802   1.0000000
B2   B   0.762280462818695   0.237721558377308   0.111053350123630   1.0000000
B2   B   0.762492631775625   0.380445937811628   0.111002190233865   1.0000000
B2   B   0.762548634614775   0.523297529053506   0.111065329573263   1.0000000
B2   B   0.761060587959274   0.665383090510935   0.111080900909943   1.0000000
B2   B   0.761772215915033   0.809171924099540   0.110988750194697   1.0000000
N2   N   0.952218047890343   0.904451388355697   0.110995564434862   1.0000000
N2   N   0.952537248041505   0.047464153876500   0.111011286967508   1.0000000
N2   N   0.952548564699777   0.190294913797045   0.111023050218980   1.0000000
N2   N   0.952435202027523   0.333094346858989   0.111005715288993   1.0000000
N2   N   0.952323802068556   0.476018733729780   0.110958487629219   1.0000000
N2   N   0.952182723357415   0.618929381778812   0.111007751229989   1.0000000
N2   N   0.952129804531729   0.761715627344488   0.111018700664197   1.0000000
N2   N   0.095156228491590   0.904845173426408   0.110961139096314   1.0000000
N2   N   0.095550013562302   0.047783354027662   0.110995564434862   1.0000000
N2   N   0.095506985262696   0.190529899126975   0.110968257087864   1.0000000
N2   N   0.095144827125454   0.333226851803294   0.110970398948527   1.0000000
N2   N   0.094613428185562   0.476137477848363   0.111004528815428   1.0000000
N2   N   0.094768776312958   0.619216721554066   0.111010907276304   1.0000000
N2   N   0.094958915045064   0.762080135122028   0.110970957290098   1.0000000
N2   N   0.237921266795978   0.905042486872935   0.110970957290098   1.0000000
N2   N   0.238285774573517   0.047871597386277   0.111018700664197   1.0000000
N2   N   0.239058468946143   0.191138038684096   0.111005315082193   1.0000000
N2   N   0.238188926949796   0.333342405187082   0.110966600837778   1.0000000
N2   N   0.236568541435642   0.476332630430684   0.111016307298617   1.0000000
N2   N   0.237145041567807   0.619531287769367   0.111064958061924   1.0000000
N2   N   0.237662948202667   0.762338453715339   0.111042213078915   1.0000000
N2   N   0.380784680363932   0.905232625605040   0.111010907276304   1.0000000
N2   N   0.381072020139187   0.047818678560591   0.111007751229989   1.0000000
N2   N   0.381546834138893   0.190646012007478   0.111049319641094   1.0000000
N2   N   0.383620614935139   0.334698506748419   0.111120590254437   1.0000000
N2   N   0.370705746992296   0.472644521166214   0.110876890020560   1.0000000
N2   N   0.379491527168219   0.620509874749780   0.111055210441574   1.0000000
N2   N   0.380470114148632   0.762856360350199   0.111064958061924   1.0000000
N2   N   0.523863924068634   0.905387973732437   0.111004528815428   1.0000000
N2   N   0.523982668187217   0.047677599849450   0.110958487629219   1.0000000
N2   N   0.524332699535752   0.190132940862950   0.110984098189134   1.0000000
N2   N   0.524968593545272   0.332472378771604   0.111072762304603   1.0000000
N2   N   0.527356880750783   0.629295654925703   0.110876890020560   1.0000000
N2   N   0.523668771486313   0.763432860482364   0.111016307298617   1.0000000
N2   N   0.666774550113703   0.904856574792544   0.110970398948527   1.0000000
N2   N   0.666907055058008   0.047566199890483   0.111005715288993   1.0000000
N2   N   0.667095346752864   0.190109378703542   0.111013963889678   1.0000000
N2   N   0.667426041909673   0.332575360007324   0.110991589448128   1.0000000
N2   N   0.667529023145392   0.475032808371725   0.111072762304603   1.0000000
N2   N   0.665302895168577   0.616380786982860   0.111120590254437   1.0000000
N2   N   0.666658996729915   0.761812474968209   0.110966600837778   1.0000000
N2   N   0.809471502791023   0.904494416655304   0.110968257087864   1.0000000
N2   N   0.809706488120953   0.047452837218228   0.111023050218980   1.0000000
N2   N   0.809805640640007   0.190195761277991   0.111048058073001   1.0000000
N2   N   0.809892023214457   0.332906055164132   0.111013963889678   1.0000000
N2   N   0.809868461055048   0.475668702381244   0.110984098189134   1.0000000
N2   N   0.809355389910520   0.618454567779106   0.111049319641094   1.0000000
N2   N   0.808863363233903   0.760942932971862   0.111005315082193   1.0000000
O2   O   0.527806966541647   0.472194435375349   0.111220364464862   1.0000000


