data_1
_audit_creation_method   'vasp2cif'
_cell_length_a    17.52789999999977
_cell_length_b    17.52789999999977
_cell_length_c    15.0
_cell_angle_alpha    90.0
_cell_angle_beta    90.0
_cell_angle_gamma    119.99999999999916

_symmetry_space_group_name_H-M    'P 1'
loop_
_atom_site_label
_atom_site_type_symbol
_atom_site_fract_x
_atom_site_fract_y
_atom_site_fract_z
_atom_site_occupancy
Si2   Si   0.414608205882183   0.476814293687989   0.110998487530874   1.0000000
B2   B   0.908590527889186   0.954865412067036   0.110544541578186   1.0000000
B2   B   0.907858753860587   0.097815693778279   0.110688134147148   1.0000000
B2   B   0.907254619398285   0.240412261800807   0.110809270172019   1.0000000
B2   B   0.905783724122839   0.382335312975368   0.110689580197426   1.0000000
B2   B   0.903041691577318   0.523870188184308   0.110616473945608   1.0000000
B2   B   0.905459060495703   0.666376609030582   0.110785892010958   1.0000000
B2   B   0.908225939935919   0.811116179875666   0.110713991662909   1.0000000
B2   B   0.048581187180110   0.950197785398392   0.110589012108567   1.0000000
B2   B   0.048414879946265   0.093578323914649   0.110765599191698   1.0000000
B2   B   0.050023664579290   0.238689095686351   0.110861047420336   1.0000000
B2   B   0.050434723606988   0.381937619558345   0.110784778259016   1.0000000
B2   B   0.048828312714613   0.523733573928332   0.110664616742814   1.0000000
B2   B   0.048484868321295   0.665438476685175   0.110650433280305   1.0000000
B2   B   0.048687616915608   0.807652986852402   0.110613358839651   1.0000000
B2   B   0.190791220231598   0.948374877940002   0.110730082340300   1.0000000
B2   B   0.188390081373873   0.088338831852819   0.110906060216644   1.0000000
B2   B   0.188276522551240   0.231264679656476   0.110938986507393   1.0000000
B2   B   0.194520869757450   0.380515161797898   0.110921177024983   1.0000000
B2   B   0.194165120346245   0.524135244083779   0.110795944171854   1.0000000
B2   B   0.192660743357473   0.665965492867592   0.110718733063171   1.0000000
B2   B   0.191770429266599   0.807328451750800   0.110696913875110   1.0000000
B2   B   0.334693263305054   0.949495811107798   0.110845220026143   1.0000000
B2   B   0.333087479930308   0.088382068001077   0.110874738221411   1.0000000
B2   B   0.327742966436787   0.222178481688892   0.110617873910982   1.0000000
B2   B   0.327531429078879   0.357870001385887   0.110783788303272   1.0000000
B2   B   0.340310504647726   0.531885807060658   0.110929144447339   1.0000000
B2   B   0.337464427274015   0.669883155030158   0.110717276712076   1.0000000
B2   B   0.335928227324013   0.809503856342077   0.110745868320627   1.0000000
B2   B   0.478947275296026   0.952793662057468   0.110832313912487   1.0000000
B2   B   0.477706632044030   0.093795553289656   0.110917509140847   1.0000000
B2   B   0.475868039729500   0.234207797178934   0.110617219200245   1.0000000
B2   B   0.467557569186284   0.368547239260293   0.108895034958177   1.0000000
B2   B   0.483984660352054   0.670089149586951   0.110635973039343   1.0000000
B2   B   0.480709969981982   0.811592378372185   0.110728854263625   1.0000000
B2   B   0.622825839004631   0.956334459427014   0.110706245526618   1.0000000
B2   B   0.621568134350540   0.097695322998142   0.110808099554678   1.0000000
B2   B   0.620072572942175   0.239884114561330   0.110767955005666   1.0000000
B2   B   0.615575282873616   0.382060822380619   0.110568886025893   1.0000000
B2   B   0.614360602084151   0.536615984389685   0.111070849828530   1.0000000
B2   B   0.632594564170011   0.681124117074038   0.111101686491588   1.0000000
B2   B   0.625046505694465   0.816314742402315   0.110745277179976   1.0000000
B2   B   0.766406672819137   0.957087043779264   0.110586686609566   1.0000000
B2   B   0.765005487881141   0.098729406418296   0.110729003716863   1.0000000
B2   B   0.763629853422409   0.240642532007773   0.110764509741047   1.0000000
B2   B   0.760881756361365   0.382492343966059   0.110664378900424   1.0000000
B2   B   0.756231560855800   0.524982347198466   0.110757362196933   1.0000000
B2   B   0.767536258462964   0.671987604442900   0.111194906225254   1.0000000
B2   B   0.769326526811116   0.816564361261048   0.110840149936277   1.0000000
N2   N   0.954565956621302   0.905424574183559   0.110509097470019   1.0000000
N2   N   0.954501889060231   0.049046917132050   0.110615104576313   1.0000000
N2   N   0.955154171653644   0.192803027594263   0.110783999386257   1.0000000
N2   N   0.954924828151076   0.335436494595634   0.110749185891634   1.0000000
N2   N   0.952828295513198   0.477224014076130   0.110600711549138   1.0000000
N2   N   0.952893486195688   0.618768793355837   0.110639069177309   1.0000000
N2   N   0.953770228859513   0.761463163318935   0.110678467637555   1.0000000
N2   N   0.095872929188888   0.902180065313611   0.110578713124469   1.0000000
N2   N   0.094457250266610   0.044186055717767   0.110726915083140   1.0000000
N2   N   0.094736359389196   0.188031698134430   0.110864271611124   1.0000000
N2   N   0.099027914061993   0.334508631455635   0.110844034996761   1.0000000
N2   N   0.098338818295951   0.477050524743148   0.110719734673068   1.0000000
N2   N   0.097107684596359   0.618586457843154   0.110656595948270   1.0000000
N2   N   0.096458610164047   0.760190659798372   0.110626496858963   1.0000000
N2   N   0.239288918989470   0.901797903466987   0.110725975370636   1.0000000
N2   N   0.237637671159816   0.042352041965444   0.110846038621562   1.0000000
N2   N   0.233905585780988   0.181617994361205   0.111013898903919   1.0000000
N2   N   0.236248943599157   0.326348228539489   0.110950634733902   1.0000000
N2   N   0.244376155343554   0.477608640937277   0.110903479315850   1.0000000
N2   N   0.241919294524910   0.619492485810356   0.110745928371031   1.0000000
N2   N   0.240413990223070   0.760760082823426   0.110709189046840   1.0000000
N2   N   0.383531471705165   0.903817922359304   0.110805105245563   1.0000000
N2   N   0.382305763606494   0.043522545016560   0.110904074111305   1.0000000
N2   N   0.380090002381259   0.181378871511526   0.110712997385979   1.0000000
N2   N   0.372887594334161   0.313021072111474   0.109957684725290   1.0000000
N2   N   0.387627882460442   0.624705645721036   0.110686640465929   1.0000000
N2   N   0.385034345672813   0.763826493267194   0.110701012482916   1.0000000
N2   N   0.527585263188685   0.906505495283220   0.110746618798688   1.0000000
N2   N   0.526334763386665   0.047734614359915   0.110864840470990   1.0000000
N2   N   0.524916034772500   0.188792144493248   0.110845636596794   1.0000000
N2   N   0.522058137476091   0.329188931287499   0.110148292089489   1.0000000
N2   N   0.522835998438994   0.541407603959685   0.110984700694265   1.0000000
N2   N   0.540219344668625   0.630431117548029   0.110655348136792   1.0000000
N2   N   0.529972327268116   0.765439961722206   0.110669938723604   1.0000000
N2   N   0.671458480146420   0.910351611582774   0.110605703011897   1.0000000
N2   N   0.669914046087790   0.051032792681904   0.110729107451198   1.0000000
N2   N   0.668569588038457   0.192815816771663   0.110773273462726   1.0000000
N2   N   0.666002778596896   0.335570962618065   0.110676051867378   1.0000000
N2   N   0.657269745993783   0.479755860201278   0.110693836814962   1.0000000
N2   N   0.674203686905939   0.629186031351898   0.111489117848014   1.0000000
N2   N   0.675774501698478   0.772923029207621   0.110946214814892   1.0000000
N2   N   0.814705802151286   0.910156000861747   0.110545130069379   1.0000000
N2   N   0.813096508611874   0.051564943970234   0.110625836165008   1.0000000
N2   N   0.812162518331673   0.193589099806002   0.110774074785810   1.0000000
N2   N   0.810387607619114   0.335708687043087   0.110687325304120   1.0000000
N2   N   0.806449668157397   0.477801295361191   0.110599998476315   1.0000000
N2   N   0.810050667915994   0.620360080991733   0.110943634745516   1.0000000
N2   N   0.814330645026325   0.766438196811237   0.110958467432554   1.0000000


