data_1
_audit_creation_method   'vasp2cif'
_cell_length_a    17.52789999999977
_cell_length_b    17.52789999999977
_cell_length_c    15.0
_cell_angle_alpha    90.0
_cell_angle_beta    90.0
_cell_angle_gamma    119.99999999999916

_symmetry_space_group_name_H-M    'P 1'
loop_
_atom_site_label
_atom_site_type_symbol
_atom_site_fract_x
_atom_site_fract_y
_atom_site_fract_z
_atom_site_occupancy
B2   B   0.904602427765081   0.952289795914435   0.118572722393461   1.0000000
B2   B   0.904762492803364   0.095240549806878   0.118066929551695   1.0000000
B2   B   0.904770240658018   0.238085384055750   0.118074120034061   1.0000000
B2   B   0.904591075057528   0.380870954517690   0.118664838018277   1.0000000
B2   B   0.904508803258163   0.523622350127738   0.118227611418631   1.0000000
B2   B   0.904306312191149   0.666438444409940   0.116465389595034   1.0000000
B2   B   0.904526026110543   0.809453092858729   0.118119080875176   1.0000000
B2   B   0.047550353156385   0.952452187750408   0.119566506196651   1.0000000
B2   B   0.047714158738775   0.095400494366856   0.118587267539589   1.0000000
B2   B   0.047748152553273   0.238142241570768   0.117368576948349   1.0000000
B2   B   0.047708778931229   0.380868054919410   0.118642712251346   1.0000000
B2   B   0.047522485399293   0.523650903959743   0.119588783411356   1.0000000
B2   B   0.047434889782971   0.666531474404432   0.119235855289567   1.0000000
B2   B   0.047444462492991   0.809488036948301   0.119219942990123   1.0000000
B2   B   0.190514236862814   0.952556605012654   0.119220819646221   1.0000000
B2   B   0.190551752332620   0.095478053561280   0.118135229417112   1.0000000
B2   B   0.190877829783502   0.238498512541150   0.113460954365191   1.0000000
B2   B   0.190873123984545   0.380947147388275   0.113473559551089   1.0000000
B2   B   0.190535408956775   0.523629002407788   0.118141661533832   1.0000000
B2   B   0.190514833682076   0.666527350047492   0.119226201270180   1.0000000
B2   B   0.190468598579948   0.809532433407856   0.118916115438438   1.0000000
B2   B   0.333466699471865   0.952566068646831   0.119212300984614   1.0000000
B2   B   0.333563459306522   0.095693628820542   0.116448588070052   1.0000000
B2   B   0.333138929696186   0.238232877452236   0.106227869705822   1.0000000
B2   B   0.333844996764873   0.381216154484522   0.094268731522611   1.0000000
B2   B   0.333150309582214   0.523491300973716   0.106247619054667   1.0000000
B2   B   0.333558144450802   0.666442588016811   0.116472559249862   1.0000000
B2   B   0.333473009903597   0.809485362089699   0.119211372227851   1.0000000
B2   B   0.476350141751885   0.952475251542330   0.119550861251317   1.0000000
B2   B   0.476378225464975   0.095489816345006   0.118173051943592   1.0000000
B2   B   0.476483628848467   0.238222218014786   0.106254477798381   1.0000000
B2   B   0.471966359153190   0.372501889087335   0.061027731435415   1.0000000
B2   B   0.471968025937739   0.528035878366311   0.061001595244862   1.0000000
B2   B   0.476510836696370   0.666851879655687   0.106246898490228   1.0000000
B2   B   0.476371568934625   0.809465298730060   0.118126296833064   1.0000000
B2   B   0.619133111054274   0.952290604398584   0.118612991418766   1.0000000
B2   B   0.619131371479977   0.095412876898132   0.118618991657593   1.0000000
B2   B   0.619043036045113   0.238504039592303   0.113456385577220   1.0000000
B2   B   0.618789225261885   0.381212922944913   0.094300582824226   1.0000000
B2   B   0.627497178758527   0.528033490376289   0.061038245980018   1.0000000
B2   B   0.618783716282388   0.666156377271571   0.094271401372730   1.0000000
B2   B   0.619055840190515   0.809130219767878   0.113461962967760   1.0000000
B2   B   0.761860480609839   0.952254892305817   0.117353700095826   1.0000000
B2   B   0.761916950182782   0.095231936968514   0.118057051736997   1.0000000
B2   B   0.761847520822853   0.238154812010069   0.117347136005268   1.0000000
B2   B   0.761495241055585   0.380959222784911   0.113484350394950   1.0000000
B2   B   0.761776587605091   0.523518330386800   0.106290064452785   1.0000000
B2   B   0.761768382551926   0.666864090763886   0.106236189343072   1.0000000
B2   B   0.761504626008617   0.809127066635844   0.113445307924050   1.0000000
Si2   Si   0.523835123169372   0.476173935797756   0.983631203287257   1.0000000
N2   N   0.952391164086163   0.904870010770170   0.119374937934735   1.0000000
N2   N   0.952349667371475   0.047654369843917   0.118691960291722   1.0000000
N2   N   0.952352504427755   0.190451337394927   0.117917983346517   1.0000000
N2   N   0.952345453462525   0.333256054141359   0.118762286081891   1.0000000
N2   N   0.952375286421825   0.476074678643093   0.119474347591254   1.0000000
N2   N   0.952385286351565   0.618993183180824   0.118837779998996   1.0000000
N2   N   0.952396228577584   0.761962769184671   0.118789466492634   1.0000000
N2   N   0.095205431014199   0.904796300633915   0.119480931888044   1.0000000
N2   N   0.095133607043595   0.047612260030932   0.119391974784595   1.0000000
N2   N   0.095261707552483   0.190547913659091   0.117240357981190   1.0000000
N2   N   0.095255160897164   0.333256963445919   0.117272577909833   1.0000000
N2   N   0.095119178658924   0.476077944570604   0.119411805097087   1.0000000
N2   N   0.095197924449253   0.618977334286097   0.119473148918672   1.0000000
N2   N   0.095220495574967   0.761899418197736   0.118991155022436   1.0000000
N2   N   0.238101880503004   0.904779638189949   0.118983211870154   1.0000000
N2   N   0.238039974123952   0.047605027969808   0.118795339778023   1.0000000
N2   N   0.237750078692069   0.190251147024166   0.114822725797481   1.0000000
N2   N   0.238344335387580   0.333460053839467   0.108216674884606   1.0000000
N2   N   0.237748587226664   0.476073686659639   0.114828000832615   1.0000000
N2   N   0.238033254716043   0.619001195483588   0.118804229813668   1.0000000
N2   N   0.238102141656954   0.761898831387154   0.118986055846725   1.0000000
N2   N   0.381022207404303   0.904801034676694   0.119441671843512   1.0000000
N2   N   0.381007959793595   0.047614275304635   0.118799336206542   1.0000000
N2   N   0.380741925786105   0.190079989336491   0.110113005775960   1.0000000
N2   N   0.379248083367438   0.331115588436594   0.090127655214220   1.0000000
N2   N   0.379255963783999   0.476709461315490   0.090122555217351   1.0000000
N2   N   0.380756662652497   0.619245483797113   0.110136654679224   1.0000000
N2   N   0.380999894532547   0.761967763887176   0.118794498314040   1.0000000
N2   N   0.523922066319481   0.904880419574755   0.119378558269049   1.0000000
N2   N   0.523926074116161   0.047623534378543   0.119416633140136   1.0000000
N2   N   0.523921633876847   0.190258577896259   0.114842118844202   1.0000000
N2   N   0.523286341203210   0.331118844807278   0.090150038558895   1.0000000
N2   N   0.523291890973673   0.620745976326393   0.090125527369870   1.0000000
N2   N   0.523928389029709   0.762253105131992   0.114820869309062   1.0000000
N2   N   0.666745457600467   0.904747666624401   0.117253160867288   1.0000000
N2   N   0.666746710895769   0.047655893639721   0.118726880337342   1.0000000
N2   N   0.666731465649741   0.190562448115342   0.117235823174956   1.0000000
N2   N   0.666537173585410   0.333463527241939   0.108222544816281   1.0000000
N2   N   0.668881704458797   0.476716637511976   0.090167939268517   1.0000000
N2   N   0.668884793626130   0.620753687224042   0.090138829849806   1.0000000
N2   N   0.666541454453817   0.761659283011103   0.108210253646127   1.0000000
N2   N   0.809455998088790   0.904743119993065   0.117222039141998   1.0000000
N2   N   0.809551714647824   0.047650478626449   0.117909077681822   1.0000000
N2   N   0.809550095570348   0.190452451756912   0.117898931784007   1.0000000
N2   N   0.809437353794065   0.333271298185571   0.117267622001568   1.0000000
N2   N   0.809740125029183   0.476080670780402   0.114892146758265   1.0000000
N2   N   0.809920590889954   0.619259845678749   0.110138860002839   1.0000000
N2   N   0.809751616842279   0.762254583390204   0.114809419174977   1.0000000


