data_1
_audit_creation_method   'vasp2cif'
_cell_length_a    17.52789999999977
_cell_length_b    17.52789999999977
_cell_length_c    15.0
_cell_angle_alpha    90.0
_cell_angle_beta    90.0
_cell_angle_gamma    119.99999999999916

_symmetry_space_group_name_H-M    'P 1'
loop_
_atom_site_label
_atom_site_type_symbol
_atom_site_fract_x
_atom_site_fract_y
_atom_site_fract_z
_atom_site_occupancy
In2   In   0.432912784389336   0.502171594818678   0.111245101747094   1.0000000
B2   B   0.905073121851033   0.952695810974889   0.111003103153609   1.0000000
B2   B   0.906302788893884   0.096285655342050   0.111040359130228   1.0000000
B2   B   0.906660853008139   0.239044773349571   0.111101531355039   1.0000000
B2   B   0.906302788893884   0.381445827242831   0.111040359130228   1.0000000
B2   B   0.905073121851033   0.523807716124162   0.111003103153609   1.0000000
B2   B   0.903337098741790   0.666077738904352   0.111051391919997   1.0000000
B2   B   0.903337098741790   0.808689765085456   0.111051391919997   1.0000000
B2   B   0.046646939206703   0.951334804265711   0.111002074752631   1.0000000
B2   B   0.047684411413769   0.094603989221619   0.110998408560850   1.0000000
B2   B   0.049309190568523   0.238912039420957   0.111028956481449   1.0000000
B2   B   0.049309190568523   0.381827556394563   0.111028956481449   1.0000000
B2   B   0.047684411413769   0.524510827440147   0.110998408560850   1.0000000
B2   B   0.046646939206703   0.666744251745007   0.111002074752631   1.0000000
B2   B   0.046300907149630   0.808866511976826   0.110991210072845   1.0000000
B2   B   0.189454753861572   0.951228698016419   0.111014889491692   1.0000000
B2   B   0.189671034486241   0.093148833592062   0.111047421326913   1.0000000
B2   B   0.189970837000845   0.235838570455496   0.110995277192043   1.0000000
B2   B   0.193042218320684   0.382236311783848   0.110999763521314   1.0000000
B2   B   0.189970837000845   0.525562671793362   0.110995277192043   1.0000000
B2   B   0.189671034486241   0.667952606142170   0.111047421326913   1.0000000
B2   B   0.189454753861572   0.809658172649167   0.111014889491692   1.0000000
B2   B   0.332924655134195   0.952178385968598   0.111038098760202   1.0000000
B2   B   0.332951388868867   0.092243253471510   0.111071413168616   1.0000000
B2   B   0.333001186562535   0.231726837393784   0.111042131240429   1.0000000
B2   B   0.330929814440767   0.367934035084107   0.111079016873784   1.0000000
B2   B   0.330929814440767   0.534426184603662   0.111079016873784   1.0000000
B2   B   0.333001186562535   0.672704754415757   0.111042131240429   1.0000000
B2   B   0.332951388868867   0.812138540644350   0.111071413168616   1.0000000
B2   B   0.476900635221556   0.954210579134580   0.111011722813783   1.0000000
B2   B   0.476900635221556   0.094120461333980   0.111011722813783   1.0000000
B2   B   0.477045006488484   0.233876393991280   0.111017939457121   1.0000000
B2   B   0.478550272102569   0.373995164911498   0.111038302544662   1.0000000
B2   B   0.478550272102569   0.675985512438078   0.111038302544662   1.0000000
B2   B   0.477045006488484   0.814599017744208   0.111017939457121   1.0000000
B2   B   0.620716787094679   0.954795503039168   0.110989438310843   1.0000000
B2   B   0.620676642784469   0.096052668237735   0.110980738986914   1.0000000
B2   B   0.620716787094679   0.237351689302508   0.110989438310843   1.0000000
B2   B   0.620713606409426   0.379057017012813   0.111010195959262   1.0000000
B2   B   0.618265993969900   0.520510488688550   0.111039213625466   1.0000000
B2   B   0.618265993969900   0.669185910529341   0.111039213625466   1.0000000
B2   B   0.620713606409426   0.813086994643635   0.111010195959262   1.0000000
B2   B   0.763488271969076   0.954211620537572   0.110999644410837   1.0000000
B2   B   0.763814866775649   0.096608396387333   0.111031929257620   1.0000000
B2   B   0.763814866775649   0.238635164079314   0.111031929257620   1.0000000
B2   B   0.763488271969076   0.380707056678498   0.110999644410837   1.0000000
B2   B   0.762356434997777   0.522962514007887   0.111047798626683   1.0000000
B2   B   0.759243058149193   0.665336731698597   0.111091926224217   1.0000000
B2   B   0.762356434997777   0.810824326237905   0.111047798626683   1.0000000
N2   N   0.951696247578114   0.904166105926008   0.110999456645755   1.0000000
N2   N   0.952882539451362   0.047795333965760   0.110987856037819   1.0000000
N2   N   0.954049787619858   0.191419352393575   0.111057100162724   1.0000000
N2   N   0.954049787619858   0.334057417344281   0.111057100162724   1.0000000
N2   N   0.952882539451362   0.476514187603596   0.110987856037819   1.0000000
N2   N   0.951696247578114   0.618958835327090   0.110999456645755   1.0000000
N2   N   0.951291429553835   0.761360061614419   0.111018018899731   1.0000000
N2   N   0.094237114954805   0.903846489063190   0.110974003289219   1.0000000
N2   N   0.094496947306823   0.046233969584904   0.110994737358884   1.0000000
N2   N   0.095082757416782   0.189407457532714   0.110974692395047   1.0000000
N2   N   0.097017777032367   0.334223235353185   0.110998159421070   1.0000000
N2   N   0.095082757416782   0.477103993558070   0.110974692395047   1.0000000
N2   N   0.094496947306823   0.619691671396921   0.110994737358884   1.0000000
N2   N   0.094237114954805   0.761821031122616   0.110974003289219   1.0000000
N2   N   0.237482532418894   0.904456468824939   0.110993691298482   1.0000000
N2   N   0.237448118924617   0.045691453053339   0.111046564504712   1.0000000
N2   N   0.237284103971383   0.187317342494084   0.111019494778233   1.0000000
N2   N   0.237239283238740   0.330453979857165   0.110992708342903   1.0000000
N2   N   0.237239283238740   0.478213997055560   0.110992708342903   1.0000000
N2   N   0.237284103971383   0.621395455152295   0.111019494778233   1.0000000
N2   N   0.237448118924617   0.763185359546280   0.111046564504712   1.0000000
N2   N   0.381387113409070   0.906553045122180   0.111032337508282   1.0000000
N2   N   0.381387113409070   0.046262761961889   0.111032337508282   1.0000000
N2   N   0.381411593313555   0.185664227435966   0.111040161766405   1.0000000
N2   N   0.381357005462679   0.324115007787087   0.111006501941729   1.0000000
N2   N   0.381357005462679   0.628670691350585   0.111006501941729   1.0000000
N2   N   0.381411593313555   0.767176059552596   0.111040161766405   1.0000000
N2   N   0.525503207972014   0.908818315661086   0.110980072080673   1.0000000
N2   N   0.525400871288724   0.048413926703865   0.110970738077631   1.0000000
N2   N   0.525503207972014   0.188113585985931   0.110980072080673   1.0000000
N2   N   0.525897474017284   0.327236304037792   0.111007360607802   1.0000000
N2   N   0.527159832927219   0.465580710098224   0.110990028716095   1.0000000
N2   N   0.527159832927219   0.633007816503979   0.110990028716095   1.0000000
N2   N   0.525897474017284   0.770089863654493   0.111007360607802   1.0000000
N2   N   0.668818289270166   0.908127780466430   0.110975828394529   1.0000000
N2   N   0.668796813936324   0.049514692731273   0.110979375401814   1.0000000
N2   N   0.668796813936324   0.190709103324056   0.110979375401814   1.0000000
N2   N   0.668818289270166   0.332119202478757   0.110975828394529   1.0000000
N2   N   0.668550722991757   0.474409114344525   0.111018829857543   1.0000000
N2   N   0.664535096243071   0.617981894959535   0.111046185768204   1.0000000
N2   N   0.668550722991757   0.765570302322228   0.111018829857543   1.0000000
N2   N   0.810571079294456   0.906217894078300   0.110996709523297   1.0000000
N2   N   0.811391066328991   0.049283947894370   0.111006326710618   1.0000000
N2   N   0.811595976191798   0.191511479154899   0.111052995136237   1.0000000
N2   N   0.811391066328991   0.333534100552620   0.111006326710618   1.0000000
N2   N   0.810571079294456   0.475781878890159   0.110996709523297   1.0000000
N2   N   0.808577436097699   0.618456004629075   0.111067222881906   1.0000000
N2   N   0.808577436097699   0.761550125143644   0.111067222881906   1.0000000


