data_1
_audit_creation_method   'vasp2cif'
_cell_length_a    17.52789999999977
_cell_length_b    17.52789999999977
_cell_length_c    15.0
_cell_angle_alpha    90.0
_cell_angle_beta    90.0
_cell_angle_gamma    119.99999999999916

_symmetry_space_group_name_H-M    'P 1'
loop_
_atom_site_label
_atom_site_type_symbol
_atom_site_fract_x
_atom_site_fract_y
_atom_site_fract_z
_atom_site_occupancy
B2   B   0.906289346116860   0.953564411449402   0.110983203781396   1.0000000
B2   B   0.904690241700153   0.095311504991847   0.111016381368773   1.0000000
B2   B   0.904164554225971   0.237798021107729   0.111031053384183   1.0000000
B2   B   0.904685498488266   0.380806479957762   0.110929822893760   1.0000000
B2   B   0.906291268900802   0.524146203467246   0.110962663300801   1.0000000
B2   B   0.905945093982763   0.667292778098967   0.111055825459009   1.0000000
B2   B   0.905948060871806   0.810085059203390   0.111026846904418   1.0000000
B2   B   0.047860857300624   0.952140866064371   0.110946760605608   1.0000000
B2   B   0.046437303892600   0.093712374355146   0.110983203308395   1.0000000
B2   B   0.045529563081931   0.236578267411368   0.110962378644379   1.0000000
B2   B   0.045517260290287   0.380376609897819   0.110968093745266   1.0000000
B2   B   0.046430183484124   0.524157928998811   0.110933249648855   1.0000000
B2   B   0.047873131088492   0.667169352567723   0.110967863242808   1.0000000
B2   B   0.048049068992393   0.809752516257020   0.110948304265037   1.0000000
B2   B   0.190249233435977   0.951952694100617   0.110948302739040   1.0000000
B2   B   0.189916641832608   0.094053651836200   0.111026842780421   1.0000000
B2   B   0.185887826632245   0.233313147155910   0.111017529675965   1.0000000
B2   B   0.185568814247796   0.378483901351003   0.111026961427113   1.0000000
B2   B   0.185880332029785   0.523975189944105   0.111020636920403   1.0000000
B2   B   0.189914192344636   0.667287637536407   0.111034028940873   1.0000000
B2   B   0.190256606768759   0.809745087772239   0.110955167666638   1.0000000
B2   B   0.332832383137276   0.952128592745512   0.110967865656806   1.0000000
B2   B   0.332708935878032   0.094056645937239   0.111055821082009   1.0000000
B2   B   0.332571282610256   0.236554659382717   0.111167306865331   1.0000000
B2   B   0.322984281614214   0.372417779983553   0.111224495666848   1.0000000
B2   B   0.322987305764712   0.522010079194284   0.111263042766449   1.0000000
B2   B   0.332556135351363   0.667445567422637   0.111126021372264   1.0000000
B2   B   0.332714015783592   0.810087436498359   0.111034032473876   1.0000000
B2   B   0.475843758420191   0.953571397445873   0.110933254959856   1.0000000
B2   B   0.475855538038758   0.093710553775196   0.110962671993801   1.0000000
B2   B   0.476023612987128   0.233322130218009   0.111249913778963   1.0000000
B2   B   0.477992769109222   0.372421817482616   0.110981330269381   1.0000000
B2   B   0.477991705238710   0.677014551575291   0.111263043280456   1.0000000
B2   B   0.476026525845894   0.814121355038215   0.111020642657403   1.0000000
B2   B   0.619625129074191   0.954484424126714   0.110968095852267   1.0000000
B2   B   0.619195190390237   0.095316188793735   0.110929823979761   1.0000000
B2   B   0.619640664699816   0.236578463970036   0.110953334793176   1.0000000
B2   B   0.621502432394816   0.378499301814184   0.111384116408144   1.0000000
B2   B   0.627579751487383   0.522008898093779   0.110981325011379   1.0000000
B2   B   0.627583869471441   0.677017442101782   0.111224495379845   1.0000000
B2   B   0.621517841808997   0.814432955155204   0.111026957079110   1.0000000
B2   B   0.763423473116632   0.954472156445069   0.110962380870374   1.0000000
B2   B   0.762203674653271   0.095837122308027   0.111031055787182   1.0000000
B2   B   0.762213748442877   0.237787956737121   0.110988050418583   1.0000000
B2   B   0.763423358413964   0.380361090731185   0.110953326386176   1.0000000
B2   B   0.766679621957988   0.523978069819883   0.111249905814965   1.0000000
B2   B   0.763446999388281   0.667430397934743   0.111167315493331   1.0000000
B2   B   0.766688524268092   0.814113890049756   0.111017532149961   1.0000000
Sn2   Sn   0.476185180720761   0.523816474826235   0.110912609657713   1.0000000
N2   N   0.953054514578549   0.905127041941982   0.110933744597057   1.0000000
N2   N   0.952279517826044   0.047722199483955   0.110966118715922   1.0000000
N2   N   0.951225818482235   0.189918477192461   0.110972127014646   1.0000000
N2   N   0.951219221685195   0.332736863142654   0.110942193520531   1.0000000
N2   N   0.952278853623797   0.475985432996253   0.110877797995308   1.0000000
N2   N   0.953059271825825   0.619360799861056   0.110953236807914   1.0000000
N2   N   0.953199958399773   0.762318027011142   0.110968924218805   1.0000000
N2   N   0.095356947426063   0.904644805041939   0.110889332078387   1.0000000
N2   N   0.094874663496020   0.046947204236451   0.110933751094053   1.0000000
N2   N   0.092030788535667   0.187766276370619   0.110927326869319   1.0000000
N2   N   0.091641123006902   0.331536016658562   0.110943852714098   1.0000000
N2   N   0.092022497879886   0.475690993625344   0.110926067024787   1.0000000
N2   N   0.094874117558538   0.619364186971654   0.110930676315255   1.0000000
N2   N   0.095360997068476   0.762163530924130   0.110915218763163   1.0000000
N2   N   0.237838181236872   0.904640713689522   0.110915219655164   1.0000000
N2   N   0.237683702365862   0.046801810564224   0.110968916795808   1.0000000
N2   N   0.236923210153519   0.188858326363503   0.111066712858888   1.0000000
N2   N   0.229668470740004   0.326559170391754   0.111042218349413   1.0000000
N2   N   0.229667765325575   0.474519953868750   0.111059066586538   1.0000000
N2   N   0.236912440840459   0.619480039170446   0.111057950047494   1.0000000
N2   N   0.237684828561095   0.762316805633899   0.110982307378875   1.0000000
N2   N   0.380637484131346   0.905127508224463   0.110930680465258   1.0000000
N2   N   0.380640927325942   0.046942479094174   0.110953244555913   1.0000000
N2   N   0.380521870229564   0.188861825286323   0.111127732660294   1.0000000
N2   N   0.380310190000353   0.332056327475774   0.111153524579285   1.0000000
N2   N   0.354059183807686   0.462748228151451   0.111430522991421   1.0000000
N2   N   0.380308313755484   0.619693484203518   0.111191735451415   1.0000000
N2   N   0.380521699318552   0.763089266039540   0.111057954668495   1.0000000
N2   N   0.524310738602657   0.907979097636111   0.110926080802787   1.0000000
N2   N   0.524016225352746   0.047722808136205   0.110877798440314   1.0000000
N2   N   0.524322993072460   0.187766628431211   0.110962141566236   1.0000000
N2   N   0.525467469733312   0.326571568872641   0.111532672725435   1.0000000
N2   N   0.537251678879812   0.462749917745193   0.109932536261506   1.0000000
N2   N   0.537253431131550   0.645942498331316   0.111430524569422   1.0000000
N2   N   0.525481828744255   0.770334091002431   0.111059063770536   1.0000000
N2   N   0.668465773953434   0.908360624466098   0.110943850501099   1.0000000
N2   N   0.667264806588338   0.048782432563810   0.110942192052536   1.0000000
N2   N   0.667275148784429   0.189917242924388   0.110890639556519   1.0000000
N2   N   0.668466545312395   0.331535265236606   0.110995336935264   1.0000000
N2   N   0.673430095259351   0.474534246276685   0.111532652326435   1.0000000
N2   N   0.667945303168227   0.619691504544647   0.111153527214283   1.0000000
N2   N   0.673442496062242   0.770333286727995   0.111042211218413   1.0000000
N2   N   0.812235436145383   0.907970926498337   0.110927327245324   1.0000000
N2   N   0.810083248084540   0.048775890590762   0.110972136701646   1.0000000
N2   N   0.809528308336045   0.190473346355955   0.111029037890213   1.0000000
N2   N   0.810084495183610   0.332726536376573   0.110890633616524   1.0000000
N2   N   0.812235263123790   0.475678761377544   0.110962121055233   1.0000000
N2   N   0.811139896080675   0.619479833817436   0.111127748013296   1.0000000
N2   N   0.811143335730497   0.763078481630488   0.111066724154883   1.0000000


