data_1
_audit_creation_method   'vasp2cif'
_cell_length_a    17.52789999999977
_cell_length_b    17.52789999999977
_cell_length_c    15.0
_cell_angle_alpha    90.0
_cell_angle_beta    90.0
_cell_angle_gamma    119.99999999999916

_symmetry_space_group_name_H-M    'P 1'
loop_
_atom_site_label
_atom_site_type_symbol
_atom_site_fract_x
_atom_site_fract_y
_atom_site_fract_z
_atom_site_occupancy
In2   In   0.497798389995819   0.502203011921176   0.111136846282219   1.0000000
B2   B   0.906508886686059   0.953807993676138   0.110992873455284   1.0000000
B2   B   0.904464205961905   0.095537815234096   0.111015473525085   1.0000000
B2   B   0.903883811210069   0.238082299407470   0.111032243557957   1.0000000
B2   B   0.904216427243552   0.380875053358231   0.110981769050966   1.0000000
B2   B   0.905705949561756   0.523893064899520   0.111034620623387   1.0000000
B2   B   0.907078663718830   0.667317153299267   0.111098646515952   1.0000000
B2   B   0.908315119545870   0.811720207223999   0.111033150382878   1.0000000
B2   B   0.048344138720454   0.951657882475551   0.111016064451185   1.0000000
B2   B   0.046194027519859   0.093493134509931   0.110992873455284   1.0000000
B2   B   0.045519864452519   0.236724861940472   0.110975158379305   1.0000000
B2   B   0.046161537565228   0.380164070836741   0.110998182537040   1.0000000
B2   B   0.047754469833119   0.523290844728809   0.110994854988810   1.0000000
B2   B   0.049038915314255   0.666200874591445   0.111052960363482   1.0000000
B2   B   0.049186516545746   0.809115786003839   0.111052501038151   1.0000000
B2   B   0.190886235192162   0.950815504650254   0.111052501038151   1.0000000
B2   B   0.188281813972000   0.091686901650117   0.111033150382878   1.0000000
B2   B   0.185336878657912   0.232983974064537   0.110982442556358   1.0000000
B2   B   0.186956182417007   0.378318155094396   0.111040108599755   1.0000000
B2   B   0.189707147063181   0.522439085317709   0.111057520714243   1.0000000
B2   B   0.191795802031142   0.665587186163821   0.111011970160355   1.0000000
B2   B   0.191610277719755   0.808391743476243   0.110998073204902   1.0000000
B2   B   0.333801146605550   0.950963105881737   0.111052960363482   1.0000000
B2   B   0.332684867897744   0.092923357477167   0.111098646515952   1.0000000
B2   B   0.327339511372195   0.231077224895288   0.110996927951658   1.0000000
B2   B   0.323155994915081   0.372277136947910   0.111054115468373   1.0000000
B2   B   0.331383234085167   0.519963777378268   0.111104595993039   1.0000000
B2   B   0.335213333097389   0.664788688099605   0.111077372376912   1.0000000
B2   B   0.334414835033180   0.808206219164859   0.111011970160355   1.0000000
B2   B   0.476711176468181   0.952247551362881   0.110994854988810   1.0000000
B2   B   0.476108956297475   0.094296071634253   0.111034620623387   1.0000000
B2   B   0.475207168035265   0.235599469800668   0.111030279153570   1.0000000
B2   B   0.463964054517720   0.364265963667540   0.111147017272186   1.0000000
B2   B   0.480038243818730   0.668618787111839   0.111104595993039   1.0000000
B2   B   0.477562935879291   0.810294874132811   0.111057520714243   1.0000000
B2   B   0.619837950359261   0.953840483630774   0.110998182537040   1.0000000
B2   B   0.619126967837785   0.095785593952440   0.110981769050966   1.0000000
B2   B   0.619011705303963   0.238380577992971   0.110977796772994   1.0000000
B2   B   0.618658633983277   0.381343387212727   0.110993664395557   1.0000000
B2   B   0.635736057528470   0.536037966679265   0.111147017272186   1.0000000
B2   B   0.627724884248091   0.676846026281916   0.111054115468373   1.0000000
B2   B   0.621683866101599   0.813045838778995   0.111040108599755   1.0000000
B2   B   0.763277159255552   0.954482156743490   0.110975158379305   1.0000000
B2   B   0.761919721788540   0.096118209985926   0.111032243557957   1.0000000
B2   B   0.761567455981666   0.238434565214324   0.111017836064521   1.0000000
B2   B   0.761621443203028   0.380990315892049   0.110977796772994   1.0000000
B2   B   0.764402551395334   0.524794853161723   0.111030279153570   1.0000000
B2   B   0.768924796300719   0.672662509824803   0.110996927951658   1.0000000
B2   B   0.767018047131472   0.814665142538091   0.110982442556358   1.0000000
N2   N   0.954289687222951   0.906075922432102   0.110989410716427   1.0000000
N2   N   0.952098938253569   0.047902463664435   0.110992654578013   1.0000000
N2   N   0.950929519388544   0.190147950619755   0.110993952527150   1.0000000
N2   N   0.951204200470758   0.332994558474834   0.110980898291910   1.0000000
N2   N   0.952637852792914   0.475986847270724   0.110970961632844   1.0000000
N2   N   0.954065599486884   0.619102506664608   0.111073720789571   1.0000000
N2   N   0.954676725071191   0.762596949269478   0.111061690697443   1.0000000
N2   N   0.096057345556425   0.903944056361559   0.111011941651548   1.0000000
N2   N   0.093925479485895   0.045711714695058   0.110989410716427   1.0000000
N2   N   0.091336878985898   0.187390650856089   0.110945065087829   1.0000000
N2   N   0.092115698718897   0.331525701977435   0.110982461787207   1.0000000
N2   N   0.094325678855589   0.475288832465951   0.110992476480716   1.0000000
N2   N   0.096302103512811   0.618454967222500   0.110996065530296   1.0000000
N2   N   0.096596597571042   0.761293827219374   0.111014758702815   1.0000000
N2   N   0.238707574698632   0.903404804346954   0.111014758702815   1.0000000
N2   N   0.237404452648527   0.045324676846823   0.111061690697443   1.0000000
N2   N   0.233012609532013   0.185107879199969   0.110973772835584   1.0000000
N2   N   0.229477265636689   0.326276383192590   0.111004491313826   1.0000000
N2   N   0.235024364663879   0.473774058356417   0.111070936486651   1.0000000
N2   N   0.239044408245383   0.617934429758518   0.111037443472239   1.0000000
N2   N   0.239140571549548   0.760860830368448   0.110971236421779   1.0000000
N2   N   0.381546434695509   0.903699298405183   0.110996065530296   1.0000000
N2   N   0.380898895253381   0.045935802431124   0.111073720789571   1.0000000
N2   N   0.379243892586213   0.187205709482684   0.111035336340446   1.0000000
N2   N   0.370290781762935   0.323502723119957   0.110999949742726   1.0000000
N2   N   0.366414755826643   0.463710238794679   0.111069395209260   1.0000000
N2   N   0.382736477339563   0.617264924578429   0.111087222123648   1.0000000
N2   N   0.382066972159476   0.760956993672615   0.111037443472239   1.0000000
N2   N   0.524712569451036   0.905675723062416   0.110992476480716   1.0000000
N2   N   0.524014554646275   0.047363549125099   0.110970961632844   1.0000000
N2   N   0.523601140247101   0.189191450919555   0.110991716627785   1.0000000
N2   N   0.523162706496470   0.330679722627744   0.111008280716330   1.0000000
N2   N   0.536291163122316   0.633586646091350   0.111069395209260   1.0000000
N2   N   0.526227343560564   0.764977037254138   0.111070936486651   1.0000000
N2   N   0.668475699939557   0.907885703199111   0.110982461787207   1.0000000
N2   N   0.667006843442166   0.048797201447254   0.110980898291910   1.0000000
N2   N   0.666595642359177   0.190787689638537   0.110973923962962   1.0000000
N2   N   0.666603969439467   0.333397432477517   0.110949811193457   1.0000000
N2   N   0.669321679289255   0.476838695420523   0.111008280716330   1.0000000
N2   N   0.676498678797033   0.629710620155066   0.110999949742726   1.0000000
N2   N   0.673725018724408   0.770524136281313   0.111004491313826   1.0000000
N2   N   0.812610751061909   0.908664522932110   0.110945065087829   1.0000000
N2   N   0.809853451298252   0.049071882529471   0.110993952527150   1.0000000
N2   N   0.809064842263128   0.190936559654857   0.111034761077566   1.0000000
N2   N   0.809213712279464   0.333405759557821   0.110973923962962   1.0000000
N2   N   0.810809950998451   0.476400261669894   0.110991716627785   1.0000000
N2   N   0.812795692435318   0.620757509331782   0.111035336340446   1.0000000
N2   N   0.814893522718030   0.766988792386002   0.110973772835584   1.0000000


