data_1
_audit_creation_method   'vasp2cif'
_cell_length_a    17.52789999999977
_cell_length_b    17.52789999999977
_cell_length_c    15.0
_cell_angle_alpha    90.0
_cell_angle_beta    90.0
_cell_angle_gamma    119.99999999999916

_symmetry_space_group_name_H-M    'P 1'
loop_
_atom_site_label
_atom_site_type_symbol
_atom_site_fract_x
_atom_site_fract_y
_atom_site_fract_z
_atom_site_occupancy
B2   B   0.905646713623725   0.953068596056277   0.111008270813448   1.0000000
B2   B   0.904723755423411   0.095278265772586   0.111011771630834   1.0000000
B2   B   0.904399285087081   0.237913989389043   0.111037266996467   1.0000000
B2   B   0.904723755423411   0.380874183341821   0.111011771630834   1.0000000
B2   B   0.905646713623725   0.524008522815452   0.111008270813448   1.0000000
B2   B   0.905471796908696   0.667020782623498   0.111046940021640   1.0000000
B2   B   0.905471796908696   0.809881419533200   0.111046940021640   1.0000000
B2   B   0.047764904580691   0.952237116615310   0.111016215391023   1.0000000
B2   B   0.046933425139726   0.094355307572271   0.111008270813448   1.0000000
B2   B   0.046349264538048   0.237188206383986   0.111002832955377   1.0000000
B2   B   0.046349264538048   0.380591463401063   0.111002832955377   1.0000000
B2   B   0.046933425139726   0.524008522815452   0.111008270813448   1.0000000
B2   B   0.047764904580691   0.666959904769375   0.111016215391023   1.0000000
B2   B   0.047878422310195   0.809655269557099   0.110994787542665   1.0000000
B2   B   0.190346751638903   0.952123598885811   0.110994787542665   1.0000000
B2   B   0.190120601662803   0.094530224287301   0.111046940021640   1.0000000
B2   B   0.187793786396981   0.235368434169623   0.111043026946124   1.0000000
B2   B   0.187481574488075   0.379455989867537   0.111054694130802   1.0000000
B2   B   0.187793786396981   0.523855757475362   0.111043026946124   1.0000000
B2   B   0.190120601662803   0.667020782623498   0.111046940021640   1.0000000
B2   B   0.190346751638903   0.809655269557099   0.110994787542665   1.0000000
B2   B   0.333042116427622   0.952237116615310   0.111016215391023   1.0000000
B2   B   0.332981238573503   0.094530224287301   0.111046940021640   1.0000000
B2   B   0.332811512964218   0.237051409978438   0.111052371622529   1.0000000
B2   B   0.327155375293199   0.375469132918805   0.111089102507888   1.0000000
B2   B   0.327155375293199   0.523116647621392   0.111089102507888   1.0000000
B2   B   0.332811512964218   0.667190508232779   0.111052371622529   1.0000000
B2   B   0.332981238573503   0.809881419533200   0.111046940021640   1.0000000
B2   B   0.475993498381549   0.953068596056277   0.111008270813448   1.0000000
B2   B   0.475993498381549   0.094355307572271   0.111008270813448   1.0000000
B2   B   0.476146263721641   0.235368434169623   0.111043026946124   1.0000000
B2   B   0.476885373575607   0.375469132918805   0.111089102507888   1.0000000
B2   B   0.476885373575607   0.672846645903800   0.111089102507888   1.0000000
B2   B   0.476146263721641   0.812208234799025   0.111043026946124   1.0000000
B2   B   0.619410557794938   0.953652756657953   0.111002832955377   1.0000000
B2   B   0.619127837854181   0.095278265772586   0.111011771630834   1.0000000
B2   B   0.619410557794938   0.237188206383986   0.111002832955377   1.0000000
B2   B   0.620546031328466   0.379455989867537   0.111054694130802   1.0000000
B2   B   0.624532888277194   0.523116647621392   0.111089102507888   1.0000000
B2   B   0.624532888277194   0.672846645903800   0.111089102507888   1.0000000
B2   B   0.620546031328466   0.812520446707929   0.111054694130802   1.0000000
B2   B   0.762813814812021   0.953652756657953   0.111002832955377   1.0000000
B2   B   0.762088031806959   0.095602736108915   0.111037266996467   1.0000000
B2   B   0.762088031806959   0.237913989389043   0.111037266996467   1.0000000
B2   B   0.762813814812021   0.380591463401063   0.111002832955377   1.0000000
B2   B   0.764633587026378   0.523855757475362   0.111043026946124   1.0000000
B2   B   0.762950611217567   0.667190508232779   0.111052371622529   1.0000000
B2   B   0.764633587026378   0.812208234799023   0.111043026946124   1.0000000
N2   N   0.952778662371080   0.904985110524980   0.110990604526907   1.0000000
N2   N   0.952325299289254   0.047676102628754   0.110961706729954   1.0000000
N2   N   0.951681035936517   0.190131957294708   0.110983205836177   1.0000000
N2   N   0.951681035936517   0.332976060759805   0.110983205836177   1.0000000
N2   N   0.952325299289254   0.476076178778495   0.110961706729954   1.0000000
N2   N   0.952778662371080   0.619222245521094   0.110990604526907   1.0000000
N2   N   0.952856018839458   0.762142356257231   0.111000391057992   1.0000000
N2   N   0.095312182848599   0.904689219069399   0.110959175930794   1.0000000
N2   N   0.095016291393018   0.047222739546926   0.110990604526907   1.0000000
N2   N   0.093393800878692   0.188945174305064   0.110976874925184   1.0000000
N2   N   0.093054226329099   0.332241460001548   0.110977096335306   1.0000000
N2   N   0.093393800878692   0.475877320247630   0.110976874925184   1.0000000
N2   N   0.095016291393018   0.619222245521094   0.110990604526907   1.0000000
N2   N   0.095312182848599   0.762053369010202   0.110959175930794   1.0000000
N2   N   0.237948032907802   0.904689219069399   0.110959175930794   1.0000000
N2   N   0.237859045660776   0.047145383078548   0.111000391057992   1.0000000
N2   N   0.237364588874994   0.189526266449375   0.111017162860515   1.0000000
N2   N   0.233197615030021   0.329546648327396   0.111051488498189   1.0000000
N2   N   0.233197615030021   0.475079660376621   0.111051488498189   1.0000000
N2   N   0.237364588874994   0.619267016100617   0.111017162860515   1.0000000
N2   N   0.237859045660776   0.762142356257231   0.111000391057992   1.0000000
N2   N   0.380779156396904   0.904985110524980   0.110990604526907   1.0000000
N2   N   0.380779156396904   0.047222739546926   0.110990604526907   1.0000000
N2   N   0.380734385817384   0.189526266449375   0.111017162860515   1.0000000
N2   N   0.380496067552180   0.332419426861355   0.111037286263548   1.0000000
N2   N   0.363803226318286   0.467615959996141   0.111103708137783   1.0000000
N2   N   0.380496067552180   0.619505334365823   0.111037286263548   1.0000000
N2   N   0.380734385817384   0.762636813043013   0.111017162860515   1.0000000
N2   N   0.524124081669368   0.906607601039308   0.110976874925184   1.0000000
N2   N   0.523925223138501   0.047676102628754   0.110961706729954   1.0000000
N2   N   0.524124081669368   0.188945174305064   0.110976874925184   1.0000000
N2   N   0.524921741540377   0.329546648327397   0.111051488498189   1.0000000
N2   N   0.532385441920855   0.467615959996141   0.111103708137783   1.0000000
N2   N   0.532385441920855   0.636198175599709   0.111103708137783   1.0000000
N2   N   0.524921741540379   0.766803786887982   0.111051488498189   1.0000000
N2   N   0.667759941915442   0.906947175588903   0.110977096335306   1.0000000
N2   N   0.667025341157191   0.048320365981490   0.110983205836177   1.0000000
N2   N   0.667025341157191   0.190131957294708   0.110983205836177   1.0000000
N2   N   0.667759941915442   0.332241460001548   0.110977096335306   1.0000000
N2   N   0.670454753589599   0.475079660376621   0.111051488498189   1.0000000
N2   N   0.667581975055641   0.619505334365823   0.111037286263548   1.0000000
N2   N   0.670454753589599   0.766803786887982   0.111051488498189   1.0000000
N2   N   0.811056227612935   0.906607601039308   0.110976874925184   1.0000000
N2   N   0.809869444623291   0.048320365981490   0.110983205836177   1.0000000
N2   N   0.809525273905997   0.190476128012001   0.111010112473474   1.0000000
N2   N   0.809869444623291   0.332976060759805   0.110983205836177   1.0000000
N2   N   0.811056227612935   0.475877320247630   0.110976874925184   1.0000000
N2   N   0.810475135468622   0.619267016100617   0.111017162860515   1.0000000
N2   N   0.810475135468622   0.762636813043013   0.111017162860515   1.0000000
S2   S   0.476191212381998   0.523810808815000   0.111073412868738   1.0000000


