data_1
_audit_creation_method   'vasp2cif'
_cell_length_a    14.93631414619966
_cell_length_b    14.936314146199727
_cell_length_c    13.341276283792837
_cell_angle_alpha    90.0
_cell_angle_beta    90.0
_cell_angle_gamma    119.99999999999984

_symmetry_space_group_name_H-M    'P 1'
loop_
_atom_site_label
_atom_site_type_symbol
_atom_site_fract_x
_atom_site_fract_y
_atom_site_fract_z
_atom_site_occupancy
Al2   Al   0.464234383636338   0.398783858484773   0.375000000000000   1.0000000
Al2   Al   0.636787933816473   0.485060633574897   0.375000000000000   1.0000000
N2   N   0.110981454525452   0.055485510385396   0.124296562699930   1.0000000
N2   N   0.611161558854426   0.555580927687167   0.123017740375461   1.0000000
N2   N   0.444292545312663   0.055458574889652   0.124115815513631   1.0000000
N2   N   0.944293017961210   0.555476839038381   0.125518531423216   1.0000000
N2   N   0.777614282086397   0.055473807709979   0.125475136201536   1.0000000
N2   N   0.110943318429476   0.722138325881365   0.623986683593116   1.0000000
N2   N   0.444292545312663   0.722167303756306   0.625884184486504   1.0000000
N2   N   0.277694952739831   0.222163922346376   0.626709891672472   1.0000000
N2   N   0.777690866909788   0.722236065611328   0.626066710576213   1.0000000
N2   N   0.610985037862945   0.222135733589636   0.626421040451189   1.0000000
N2   N   0.944313684587386   0.222150034112910   0.624833259949806   1.0000000
N2   N   0.277607829931951   0.722140476118588   0.125407607101253   1.0000000
N2   N   0.111017208134912   0.222175270734079   0.123998609021729   1.0000000
N2   N   0.444375859515864   0.222152964905775   0.123091513135877   1.0000000
N2   N   0.610985037862945   0.722182637607005   0.123578959548619   1.0000000
N2   N   0.944293017961210   0.722149512256132   0.125518531423216   1.0000000
N2   N   0.777621289295511   0.222116342562853   0.124901906615587   1.0000000
N2   N   0.110949197661504   0.888806504797995   0.624619775057930   1.0000000
N2   N   0.444261771385009   0.888797552359103   0.624815444428711   1.0000000
N2   N   0.277694952739831   0.388864363726761   0.626709891672446   1.0000000
N2   N   0.611161558854426   0.388913964500506   0.626982259624609   1.0000000
N2   N   0.777621289295511   0.888838280066131   0.625098093384525   1.0000000
N2   N   0.944306981049772   0.388801043376651   0.624878291813337   1.0000000
N2   N   0.110981454525453   0.388829277473369   0.124296562699930   1.0000000
N2   N   0.277607829932033   0.888800687146716   0.125407607101253   1.0000000
N2   N   0.610937069742108   0.888814816840917   0.124863515606147   1.0000000
N2   N   0.444457218393899   0.388895275863606   0.126856640539736   1.0000000
N2   N   0.944306981049772   0.888839271006640   0.125121708186638   1.0000000
N2   N   0.777690866909788   0.388788134631832   0.123933289423881   1.0000000
N2   N   0.277641351519326   0.555503548562420   0.626043337890674   1.0000000
N2   N   0.110981454525452   0.055485510385398   0.625703437300074   1.0000000
N2   N   0.611161558854426   0.555580927687167   0.626982259624609   1.0000000
N2   N   0.444292545312663   0.055458574889651   0.625884184486504   1.0000000
N2   N   0.944293017961210   0.555476839038381   0.624481468576769   1.0000000
N2   N   0.110949197661504   0.555476026196757   0.125380224941969   1.0000000
N2   N   0.777614282086397   0.055473807709981   0.624524863798314   1.0000000
N2   N   0.277641351519325   0.055471136290288   0.123956662109393   1.0000000
N2   N   0.444375859515864   0.555556227943209   0.123091513135876   1.0000000
N2   N   0.777643700897879   0.555488517115888   0.124683652838790   1.0000000
N2   N   0.610937069742108   0.055455586234767   0.124863515606147   1.0000000
N2   N   0.444375859515864   0.555556227943209   0.626908486864299   1.0000000
N2   N   0.944313684587386   0.055496983807744   0.125166740050138   1.0000000
N2   N   0.277607829931951   0.722140476118588   0.624592392898846   1.0000000
N2   N   0.111017208134913   0.222175270734079   0.626001390978344   1.0000000
N2   N   0.444375859515864   0.222152964905775   0.626908486864299   1.0000000
N2   N   0.610985037862945   0.722182637607005   0.626421040451189   1.0000000
N2   N   0.944293017961210   0.722149512256084   0.624481468576769   1.0000000
N2   N   0.777621289295511   0.222116342562853   0.625098093384525   1.0000000
N2   N   0.110943318429475   0.722138325881365   0.126013316406984   1.0000000
N2   N   0.444292545312663   0.722167303756306   0.124115815513628   1.0000000
N2   N   0.277694952739831   0.222163922346376   0.123290108327439   1.0000000
N2   N   0.777690866909788   0.722236065611328   0.123933289423881   1.0000000
N2   N   0.610985037862945   0.222135733589636   0.123578959548620   1.0000000
N2   N   0.944313684587386   0.222150034112910   0.125166740050138   1.0000000
N2   N   0.110981454525452   0.388829277473369   0.625703437300074   1.0000000
N2   N   0.277607829931951   0.888800687146716   0.624592392898846   1.0000000
N2   N   0.610937069742108   0.888814816840917   0.625136484393955   1.0000000
N2   N   0.444457218393899   0.388895275863606   0.623143359460306   1.0000000
N2   N   0.944306981049772   0.888839271006640   0.624878291813337   1.0000000
N2   N   0.110949197661504   0.888806504797995   0.125380224941970   1.0000000
N2   N   0.777690866909788   0.388788134631832   0.626066710576213   1.0000000
N2   N   0.444261771385009   0.888797552359103   0.125184555571457   1.0000000
N2   N   0.277694952739831   0.388864363726761   0.123290108327423   1.0000000
N2   N   0.277641351519325   0.555503548562420   0.123956662109393   1.0000000
N2   N   0.611161558854426   0.388913964500506   0.123017740375462   1.0000000
N2   N   0.777621289295511   0.888838280066131   0.124901906615587   1.0000000
N2   N   0.944306981049772   0.388801043376651   0.125121708186638   1.0000000
N2   N   0.110949197661503   0.555476026196757   0.624619775057930   1.0000000
N2   N   0.277641351519326   0.055471136290288   0.626043337890674   1.0000000
N2   N   0.777643700897879   0.555488517115888   0.625316347161358   1.0000000
N2   N   0.610937069742108   0.055455586234768   0.625136484393955   1.0000000
N2   N   0.944313684587386   0.055496983807744   0.624833259949805   1.0000000
N2   N   0.056911768854516   0.112185260538906   0.375000000000000   1.0000000
N2   N   0.547653770903129   0.628615631442010   0.375000000000000   1.0000000
N2   N   0.382942863087546   0.099262560497717   0.375000000000000   1.0000000
N2   N   0.892764308727110   0.613048821030091   0.375000000000000   1.0000000
N2   N   0.723025063252455   0.109886107517200   0.375000000000000   1.0000000
N2   N   0.055561803597150   0.777784626359493   0.875000000000000   1.0000000
N2   N   0.388900911611817   0.777778737381338   0.875000000000000   1.0000000
N2   N   0.222231871588927   0.277782602461146   0.875000000000000   1.0000000
N2   N   0.722241875610828   0.777788418886131   0.875000000000000   1.0000000
N2   N   0.555573826716486   0.277794761679134   0.875000000000000   1.0000000
N2   N   0.888905743394031   0.277783590363235   0.875000000000000   1.0000000
N2   N   0.218646639715948   0.775989986524649   0.375000000000000   1.0000000
N2   N   0.056911768854516   0.278059841648951   0.375000000000000   1.0000000
N2   N   0.386689277126571   0.264947572492007   0.375000000000000   1.0000000
N2   N   0.553458528865989   0.785247453130034   0.375000000000000   1.0000000
N2   N   0.889534212099007   0.780022206417958   0.375000000000000   1.0000000
N2   N   0.722314009673601   0.273758710223968   0.375000000000000   1.0000000
N2   N   0.055566843396722   0.944455679911925   0.875000000000000   1.0000000
N2   N   0.388900911611817   0.944455507563853   0.875000000000000   1.0000000
N2   N   0.222233510460975   0.444441349365075   0.875000000000000   1.0000000
N2   N   0.555561474955528   0.444447404144429   0.875000000000000   1.0000000
N2   N   0.722235806982496   0.944452272581478   0.875000000000000   1.0000000
N2   N   0.888909180035706   0.444450700258690   0.875000000000000   1.0000000
N2   N   0.054741247091551   0.443844922373991   0.375000000000000   1.0000000
N2   N   0.218412908766124   0.940440259943712   0.375000000000000   1.0000000
N2   N   0.553974804082636   0.943654068707979   0.375000000000000   1.0000000
N2   N   0.386689277126558   0.455075037967923   0.375000000000000   1.0000000
N2   N   0.889900063360734   0.946403225576466   0.375000000000000   1.0000000
N2   N   0.726272583280963   0.441882536615124   0.375000000000000   1.0000000
N2   N   0.222231191484928   0.611107183021616   0.875000000000000   1.0000000
N2   N   0.055564876638756   0.111117324259117   0.875000000000000   1.0000000
N2   N   0.555573826716486   0.611112398370738   0.875000000000000   1.0000000
N2   N   0.388906753844230   0.111134992379249   0.875000000000000   1.0000000
N2   N   0.888897878980425   0.611115606156923   0.875000000000000   1.0000000
N2   N   0.054042919881767   0.610115426667681   0.375000000000000   1.0000000
N2   N   0.722235806982496   0.111116867734267   0.875000000000000   1.0000000
N2   N   0.220207786794710   0.107968257300829   0.375000000000000   1.0000000
N2   N   0.382942863087546   0.617013635923239   0.375000000000000   1.0000000
N2   N   0.726272583280963   0.617723379999116   0.375000000000000   1.0000000
N2   N   0.553458528865989   0.101544409069465   0.375000000000000   1.0000000
N2   N   0.388906753844230   0.611105094798257   0.875000000000000   1.0000000
N2   N   0.890436481705383   0.111884907519371   0.375000000000000   1.0000000
N2   N   0.222228157042045   0.777780745187786   0.875000000000000   1.0000000
N2   N   0.055564876638756   0.277780885713040   0.875000000000000   1.0000000
N2   N   0.388909006450923   0.277804683917640   0.875000000000000   1.0000000
N2   N   0.555571618565563   0.777781459015187   0.875000000000000   1.0000000
N2   N   0.888909180035706   0.777791813110602   0.875000000000000   1.0000000
N2   N   0.722241875610828   0.277786790058282   0.875000000000000   1.0000000
N2   N   0.054042919881767   0.777260826547463   0.375000000000000   1.0000000
N2   N   0.385159813730596   0.778708689361554   0.375000000000000   1.0000000
N2   N   0.224987330873178   0.279160332103401   0.375000000000000   1.0000000
N2   N   0.722314009673601   0.781888632782852   0.375000000000000   1.0000000
N2   N   0.547653770903129   0.252371472794377   0.375000000000000   1.0000000
N2   N   0.889900063360734   0.276830171117501   0.375000000000000   1.0000000
N2   N   0.055566843396722   0.444444496818078   0.875000000000000   1.0000000
N2   N   0.222231191484928   0.944457341796574   0.875000000000000   1.0000000
N2   N   0.555565791930270   0.944449562631799   0.875000000000000   1.0000000
N2   N   0.388909006450923   0.444437655866770   0.875000000000000   1.0000000
N2   N   0.888905743394031   0.944455486363946   0.875000000000000   1.0000000
N2   N   0.054741247091551   0.944229658050794   0.375000000000000   1.0000000
N2   N   0.722244154891010   0.444455439018269   0.875000000000000   1.0000000
N2   N   0.385159813730596   0.939784457702290   0.375000000000000   1.0000000
N2   N   0.220207786794710   0.445572862827324   0.375000000000000   1.0000000
N2   N   0.218412908766124   0.611305982155820   0.375000000000000   1.0000000
N2   N   0.723025063252454   0.946472289068777   0.375000000000000   1.0000000
N2   N   0.889534212099007   0.442845339014412   0.375000000000000   1.0000000
N2   N   0.055561803597150   0.611110510571164   0.875000000000000   1.0000000
N2   N   0.222233510460975   0.111125494429183   0.875000000000000   1.0000000
N2   N   0.722244154891010   0.611122049205899   0.875000000000000   1.0000000
N2   N   0.555571618565563   0.111123492883640   0.875000000000000   1.0000000
N2   N   0.888902831763295   0.111118082548268   0.875000000000000   1.0000000
B2   B   0.110399209546061   0.054996880634392   0.375000000000000   1.0000000
B2   B   0.598126588475556   0.577106322529334   0.375000000000000   1.0000000
B2   B   0.441779653639882   0.048308024915250   0.375000000000000   1.0000000
B2   B   0.945345457031177   0.553840800117130   0.375000000000000   1.0000000
B2   B   0.779764451081028   0.056548892207150   0.375000000000000   1.0000000
B2   B   0.111149948922998   0.722241641128213   0.875000000000000   1.0000000
B2   B   0.444447316097431   0.722240483583497   0.875000000000000   1.0000000
B2   B   0.277719251543229   0.222194703242344   0.875000000000000   1.0000000
B2   B   0.777836098321166   0.722317706456896   0.875000000000000   1.0000000
B2   B   0.611131753371922   0.222176397639702   0.875000000000000   1.0000000
B2   B   0.944467688780694   0.222213107141002   0.875000000000000   1.0000000
B2   B   0.274467816884061   0.721782349273988   0.375000000000000   1.0000000
B2   B   0.113613451783944   0.223473392558597   0.375000000000000   1.0000000
B2   B   0.436956580534171   0.206399311352979   0.375000000000000   1.0000000
B2   B   0.610847164632980   0.735290051868422   0.375000000000000   1.0000000
B2   B   0.945345457031177   0.724837990247321   0.375000000000000   1.0000000
B2   B   0.779355250259379   0.220043640479534   0.375000000000000   1.0000000
B2   B   0.111138946778722   0.888929429362096   0.875000000000000   1.0000000
B2   B   0.444456278984770   0.888894806159084   0.875000000000000   1.0000000
B2   B   0.277719251543229   0.388857881634295   0.875000000000000   1.0000000
B2   B   0.611124781148264   0.388839236670867   0.875000000000000   1.0000000
B2   B   0.777817448861210   0.888957625882383   0.875000000000000   1.0000000
B2   B   0.944491398089547   0.388862246290430   0.875000000000000   1.0000000
B2   B   0.110399209546061   0.388735662245054   0.375000000000000   1.0000000
B2   B   0.274467816884061   0.886018800943583   0.375000000000000   1.0000000
B2   B   0.611732710894447   0.893229900047039   0.375000000000000   1.0000000
B2   B   0.945006332511065   0.891084867797574   0.375000000000000   1.0000000
B2   B   0.780146505432716   0.384443596903942   0.375000000000000   1.0000000
B2   B   0.277765514432521   0.555543582510195   0.875000000000000   1.0000000
B2   B   0.111112174057356   0.055578002967469   0.875000000000000   1.0000000
B2   B   0.611124781148264   0.555618877810682   0.875000000000000   1.0000000
B2   B   0.444447316097431   0.055540165847451   0.875000000000000   1.0000000
B2   B   0.944507371374886   0.555554938620752   0.875000000000000   1.0000000
B2   B   0.108929126605829   0.554505538177981   0.375000000000000   1.0000000
B2   B   0.777808013435913   0.055570673384611   0.875000000000000   1.0000000
B2   B   0.273215241726631   0.049914605065818   0.375000000000000   1.0000000
B2   B   0.436956580534172   0.563890602514583   0.375000000000000   1.0000000
B2   B   0.787812801353430   0.560573067343381   0.375000000000000   1.0000000
B2   B   0.611732710894447   0.051836144180689   0.375000000000000   1.0000000
B2   B   0.444416147135463   0.555568696771056   0.875000000000000   1.0000000
B2   B   0.946284971319934   0.057314359273487   0.375000000000000   1.0000000
B2   B   0.277791151157481   0.722224863969467   0.875000000000000   1.0000000
B2   B   0.111090268236945   0.222211800785159   0.875000000000000   1.0000000
B2   B   0.444416147135463   0.222180783697821   0.875000000000000   1.0000000
B2   B   0.611131753371922   0.722288689065341   0.875000000000000   1.0000000
B2   B   0.944507371374886   0.722285766087524   0.875000000000000   1.0000000
B2   B   0.777817448861210   0.222193156312292   0.875000000000000   1.0000000
B2   B   0.108788674800820   0.721061004067111   0.375000000000000   1.0000000
B2   B   0.441779653639882   0.726804962057966   0.375000000000000   1.0000000
B2   B   0.277315986654415   0.218921541741201   0.375000000000000   1.0000000
B2   B   0.780146505432716   0.729036241862024   0.375000000000000   1.0000000
B2   B   0.610847164632980   0.208890446097887   0.375000000000000   1.0000000
B2   B   0.946284971319934   0.222303945379917   0.375000000000000   1.0000000
B2   B   0.111112174057356   0.388867504423182   0.875000000000000   1.0000000
B2   B   0.277791151157482   0.888899620521496   0.875000000000000   1.0000000
B2   B   0.611132486714176   0.888921590576105   0.875000000000000   1.0000000
B2   B   0.444361587250504   0.388847460291811   0.875000000000000   1.0000000
B2   B   0.944491398089547   0.888962485132564   0.875000000000000   1.0000000
B2   B   0.108929126605838   0.887756921761306   0.375000000000000   1.0000000
B2   B   0.777836098321166   0.388851725197964   0.875000000000000   1.0000000
B2   B   0.442589953618366   0.887961643475808   0.375000000000000   1.0000000
B2   B   0.277315986654415   0.391727778246601   0.375000000000000   1.0000000
B2   B   0.273215241726634   0.556633969994063   0.375000000000000   1.0000000
B2   B   0.598126588475556   0.354353599279598   0.375000000000000   1.0000000
B2   B   0.779355250259379   0.892644943113284   0.375000000000000   1.0000000
B2   B   0.945006332511064   0.387254798046706   0.375000000000000   1.0000000
B2   B   0.111138946778722   0.555542850750065   0.875000000000000   1.0000000
B2   B   0.277765514432521   0.055555265255719   0.875000000000000   1.0000000
B2   B   0.777834812792529   0.555584073062814   0.875000000000000   1.0000000
B2   B   0.611132486714176   0.055544229471321   0.875000000000000   1.0000000
B2   B   0.944467688780694   0.055587914972975   0.875000000000000   1.0000000
B2   B   0.055433898080495   0.111068490679626   0.124386480884416   1.0000000
B2   B   0.555316259624942   0.611277830676691   0.122843793095288   1.0000000
B2   B   0.388656704578413   0.110844089120470   0.123392481126973   1.0000000
B2   B   0.889065889782124   0.611199611557745   0.124656761326108   1.0000000
B2   B   0.722034360298926   0.110942693330804   0.124954439760824   1.0000000
B2   B   0.055569859441725   0.777812749850856   0.624545413635286   1.0000000
B2   B   0.388696978821665   0.777726218768286   0.625205038515711   1.0000000
B2   B   0.222039596506475   0.277686464919881   0.626604904047849   1.0000000
B2   B   0.722093600627336   0.777912071248032   0.626256716651383   1.0000000
B2   B   0.555316259624942   0.277371762281541   0.627156206904758   1.0000000
B2   B   0.888772503788008   0.277621970474630   0.625094165493213   1.0000000
B2   B   0.222131462336359   0.777732397834733   0.125548506487053   1.0000000
B2   B   0.055433898080496   0.277698740734313   0.124386480884416   1.0000000
B2   B   0.388529590607130   0.277303137788780   0.124104497151127   1.0000000
B2   B   0.555337444640218   0.777801614127127   0.123937026207961   1.0000000
B2   B   0.888912325163493   0.777926358496093   0.124493446294830   1.0000000
B2   B   0.722093600627336   0.277514862712503   0.123743283348645   1.0000000
B2   B   0.055477575958004   0.944456010549233   0.625199930922106   1.0000000
B2   B   0.388696978821665   0.944304093386623   0.625205038515711   1.0000000
B2   B   0.222040326883750   0.444404786921529   0.626397160463892   1.0000000
B2   B   0.555527179484531   0.444430256408928   0.627111320667157   1.0000000
B2   B   0.722034360298926   0.944425000301613   0.625045560239368   1.0000000
B2   B   0.888912325163493   0.444319300000867   0.625506553705015   1.0000000
B2   B   0.055477575958005   0.444354898742146   0.124800069077692   1.0000000
B2   B   0.222090174197961   0.944357913777681   0.124797522071631   1.0000000
B2   B   0.555339100677230   0.944336217005283   0.124866027403665   1.0000000
B2   B   0.388529590607130   0.444559786151600   0.124104497151138   1.0000000
B2   B   0.888772503788008   0.944483866646636   0.124905834506843   1.0000000
B2   B   0.722355873734718   0.444286428514227   0.122609131308900   1.0000000
B2   B   0.222090174197962   0.611065593753893   0.625202477928369   1.0000000
B2   B   0.055433898080495   0.111068490679626   0.625613519115470   1.0000000
B2   B   0.555316259624952   0.611277830676691   0.627156206904758   1.0000000
B2   B   0.388656704578413   0.110844089120470   0.626607518873058   1.0000000
B2   B   0.889065889782124   0.611199611557745   0.625343238673813   1.0000000
B2   B   0.055569859441724   0.611090442924209   0.125454586364779   1.0000000
B2   B   0.722034360298926   0.110942693330804   0.625045560239368   1.0000000
B2   B   0.222040326883750   0.110968873295586   0.123602839536149   1.0000000
B2   B   0.388656704578413   0.611145948791462   0.123392481126973   1.0000000
B2   B   0.722355873734718   0.611402778553748   0.122609131308900   1.0000000
B2   B   0.555337444640218   0.110869163846351   0.123937026207961   1.0000000
B2   B   0.388656704578413   0.611145948791462   0.626607518873058   1.0000000
B2   B   0.888741814048123   0.111037573690800   0.125192805178070   1.0000000
B2   B   0.222131462336359   0.777732397834733   0.624451493513111   1.0000000
B2   B   0.055433898080495   0.277698740734313   0.625613519115470   1.0000000
B2   B   0.388529590607130   0.277303137788780   0.625895502848731   1.0000000
B2   B   0.555337444640218   0.777801614127127   0.626062973791932   1.0000000
B2   B   0.888912325163493   0.777926358496093   0.625506553705015   1.0000000
B2   B   0.722093600627336   0.277514862712503   0.626256716651383   1.0000000
B2   B   0.055569859441724   0.777812749850856   0.125454586364786   1.0000000
B2   B   0.388696978821665   0.777726218768286   0.124794961484463   1.0000000
B2   B   0.222039596506475   0.277686464919881   0.123395095952162   1.0000000
B2   B   0.722093600627336   0.777912071248030   0.123743283348645   1.0000000
B2   B   0.555316259624942   0.277371762281541   0.122843793095286   1.0000000
B2   B   0.888772503788008   0.277621970474630   0.124905834506843   1.0000000
B2   B   0.055477575958004   0.444354898742146   0.625199930922106   1.0000000
B2   B   0.222090174197970   0.944357913777681   0.625202477928369   1.0000000
B2   B   0.555339100677230   0.944336217005283   0.625133972596331   1.0000000
B2   B   0.388529590607130   0.444559786151600   0.625895502848744   1.0000000
B2   B   0.888772503788008   0.944483866646636   0.625094165493213   1.0000000
B2   B   0.055477575958004   0.944456010549233   0.124800069077692   1.0000000
B2   B   0.722355873734718   0.444286428514227   0.627390868691124   1.0000000
B2   B   0.388696978821665   0.944304093386623   0.124794961484463   1.0000000
B2   B   0.222040326883750   0.444404786921529   0.123602839536149   1.0000000
B2   B   0.222090174197962   0.611065593753893   0.124797522071631   1.0000000
B2   B   0.555527179484527   0.444430256408928   0.122888679332901   1.0000000
B2   B   0.722034360298926   0.944425000301613   0.124954439760824   1.0000000
B2   B   0.888912325163493   0.444319300000867   0.124493446294827   1.0000000
B2   B   0.055569859441724   0.611090442924209   0.624545413635286   1.0000000
B2   B   0.222040326883750   0.110968873295586   0.626397160463892   1.0000000
B2   B   0.722355873734718   0.611402778553748   0.627390868691124   1.0000000
B2   B   0.555337444640218   0.110869163846352   0.626062973791932   1.0000000
B2   B   0.888741814048123   0.111037573690800   0.624807194821828   1.0000000


