data_1
_audit_creation_method   'vasp2cif'
_cell_length_a    17.52789999999977
_cell_length_b    17.52789999999977
_cell_length_c    15.0
_cell_angle_alpha    90.0
_cell_angle_beta    90.0
_cell_angle_gamma    119.99999999999916

_symmetry_space_group_name_H-M    'P 1'
loop_
_atom_site_label
_atom_site_type_symbol
_atom_site_fract_x
_atom_site_fract_y
_atom_site_fract_z
_atom_site_occupancy
B2   B   0.904712056421203   0.952325131486457   0.110818859171243   1.0000000
B2   B   0.904424562876661   0.095053135970463   0.110923907116935   1.0000000
B2   B   0.904407975089280   0.237931172477759   0.110927423239426   1.0000000
B2   B   0.904537869023228   0.380879714129198   0.110834829176281   1.0000000
B2   B   0.904868462337549   0.523890658809257   0.110929176616052   1.0000000
B2   B   0.905260252615788   0.666918969149201   0.110983921920607   1.0000000
B2   B   0.905104738832732   0.809711364382780   0.110916908646623   1.0000000
B2   B   0.047599912337522   0.952306030348567   0.110824121024198   1.0000000
B2   B   0.046964539317463   0.094617058357610   0.110848651490764   1.0000000
B2   B   0.047073312543357   0.237709502330174   0.110796485788126   1.0000000
B2   B   0.047194419824095   0.380828216005473   0.110910749443898   1.0000000
B2   B   0.047198057592739   0.523880421579530   0.110928113124562   1.0000000
B2   B   0.047686525927093   0.666839178226985   0.110937301886867   1.0000000
B2   B   0.047813864876244   0.809673148566907   0.110856189130582   1.0000000
B2   B   0.190470137847280   0.952347395620504   0.110846462686575   1.0000000
B2   B   0.190231230147551   0.094836891679694   0.110581845083144   1.0000000
B2   B   0.188946297479203   0.236576054566025   0.110243421965595   1.0000000
B2   B   0.189932272292007   0.380468485976309   0.110438965434150   1.0000000
B2   B   0.189401169747530   0.524002185597658   0.110960590901197   1.0000000
B2   B   0.190237654762840   0.666948279024157   0.111024776647399   1.0000000
B2   B   0.190476133545382   0.809707975366322   0.110902115347995   1.0000000
B2   B   0.333314578672036   0.952468971557964   0.110918285503783   1.0000000
B2   B   0.333306145694084   0.094906149482697   0.111040979415156   1.0000000
B2   B   0.333034419196248   0.236874095230310   0.110261273740042   1.0000000
B2   B   0.330623231629914   0.376339206389828   0.107472659578183   1.0000000
B2   B   0.331432771415931   0.525701240597797   0.111066382482979   1.0000000
B2   B   0.333079011504421   0.667750329051768   0.111033548764762   1.0000000
B2   B   0.333248137421161   0.810009344511795   0.111056040747456   1.0000000
B2   B   0.476121783117185   0.952478328096359   0.110935564362222   1.0000000
B2   B   0.476152963710549   0.095238508021986   0.110702798473648   1.0000000
B2   B   0.476260992757088   0.238044033507027   0.111084262683287   1.0000000
B2   B   0.475011530071831   0.378968969519883   0.121176891048764   1.0000000
B2   B   0.480028641646247   0.526511395931723   0.125335974214253   1.0000000
B2   B   0.476330380077637   0.666745078014976   0.111891642184389   1.0000000
B2   B   0.476130783057972   0.809701907656033   0.111016546077904   1.0000000
B2   B   0.618918374573195   0.952438584131407   0.110940397255528   1.0000000
B2   B   0.618877531555536   0.095182421312771   0.110810900235215   1.0000000
B2   B   0.618968906608496   0.237934193152217   0.110641272429260   1.0000000
B2   B   0.619058271304065   0.380477694123032   0.110477659327221   1.0000000
B2   B   0.622913742115757   0.525329413796750   0.107406310670873   1.0000000
B2   B   0.620425496025318   0.668068997841741   0.110900658755766   1.0000000
B2   B   0.619195650777737   0.809794548498897   0.110914563848064   1.0000000
B2   B   0.761812424128849   0.952412041252624   0.110829875950282   1.0000000
B2   B   0.761645959558181   0.095153708448157   0.110929488620809   1.0000000
B2   B   0.761690926782354   0.237979423217440   0.110827093096537   1.0000000
B2   B   0.761899915058893   0.380873294229367   0.110678999603734   1.0000000
B2   B   0.762790815806901   0.524091648853298   0.111040950816567   1.0000000
B2   B   0.762925568277072   0.667127079797643   0.111097564371875   1.0000000
B2   B   0.762466185753940   0.810016920542964   0.110642162361794   1.0000000
C2   C   0.381334617085527   0.475361236299560   0.113749944421883   1.0000000
N2   N   0.952380232238385   0.904743162149157   0.110799851115173   1.0000000
N2   N   0.951899412250735   0.047277086012252   0.110858359668092   1.0000000
N2   N   0.951879539472882   0.190236126153755   0.110880706111527   1.0000000
N2   N   0.951984418049072   0.333178223814281   0.110886402222761   1.0000000
N2   N   0.952066802745527   0.476130039156395   0.110809463775193   1.0000000
N2   N   0.952474317656173   0.619105145273127   0.110888521698694   1.0000000
N2   N   0.952581879882660   0.762011055409408   0.110850922882663   1.0000000
N2   N   0.095252485727787   0.904760077949032   0.110827987755225   1.0000000
N2   N   0.094961290334977   0.047320262667558   0.110761262706986   1.0000000
N2   N   0.094001538031759   0.189424388947792   0.110819675040946   1.0000000
N2   N   0.094685230643773   0.333061326949886   0.110783415313459   1.0000000
N2   N   0.094389401103430   0.476140899892997   0.110928343449577   1.0000000
N2   N   0.095018685595505   0.619140267734992   0.110976894741620   1.0000000
N2   N   0.095259871841764   0.762011015109347   0.110881782820755   1.0000000
N2   N   0.238088352014088   0.904834163328671   0.110834993177442   1.0000000
N2   N   0.238045001157263   0.047430848806673   0.110838361049689   1.0000000
N2   N   0.237764600696560   0.189893159537848   0.110015680268042   1.0000000
N2   N   0.235885258230205   0.331007148396815   0.109094724321915   1.0000000
N2   N   0.236687095763847   0.476440566508266   0.110732575547707   1.0000000
N2   N   0.237717888023233   0.619392152064467   0.111010157893007   1.0000000
N2   N   0.238001712870365   0.762167310314342   0.110975996598685   1.0000000
N2   N   0.380952239864914   0.905054372475385   0.110930383604551   1.0000000
N2   N   0.380989378355380   0.047551267970570   0.110922147280092   1.0000000
N2   N   0.381084918819040   0.190009936562193   0.111132255830753   1.0000000
N2   N   0.380878648159792   0.332158121525911   0.110336639960204   1.0000000
N2   N   0.380636288185363   0.620507832650793   0.111013131431481   1.0000000
N2   N   0.380940326386497   0.762698093694761   0.111120502842122   1.0000000
N2   N   0.523774498854301   0.904837610068669   0.110974456216292   1.0000000
N2   N   0.523757738072485   0.047673395965429   0.110802043690926   1.0000000
N2   N   0.523887538770655   0.190598803954157   0.110431031808322   1.0000000
N2   N   0.524250728081626   0.333838647290901   0.112691243669523   1.0000000
N2   N   0.526124453710247   0.620231177202633   0.114461680901635   1.0000000
N2   N   0.523905539981852   0.761915353243421   0.110979311843831   1.0000000
N2   N   0.666600330092804   0.904813165463591   0.110904093911852   1.0000000
N2   N   0.666485328746002   0.047588656921024   0.110834784531478   1.0000000
N2   N   0.666532789996925   0.190416360611960   0.110780775610097   1.0000000
N2   N   0.666642576001220   0.333289005004630   0.110312747190420   1.0000000
N2   N   0.667292299854334   0.476249652854755   0.109976696425072   1.0000000
N2   N   0.667427517230440   0.619244523292736   0.110227364110316   1.0000000
N2   N   0.667473386234003   0.762650718815176   0.110310345285596   1.0000000
N2   N   0.809580099956618   0.904880666220889   0.110728396251439   1.0000000
N2   N   0.809236226658197   0.047522705357769   0.110918196120152   1.0000000
N2   N   0.809214466369112   0.190362656658385   0.110906434590323   1.0000000
N2   N   0.809315953651231   0.333244936561846   0.110744398786555   1.0000000
N2   N   0.809655766713098   0.476181480920289   0.111011855189022   1.0000000
N2   N   0.809988549527685   0.619183873827773   0.111071467023008   1.0000000
N2   N   0.809868497822248   0.762072779511110   0.110982417362710   1.0000000
O2   O   0.529021565046232   0.478173912770292   0.104683613488602   1.0000000


