data_1
_audit_creation_method   'vasp2cif'
_cell_length_a    17.52789999999977
_cell_length_b    17.52789999999977
_cell_length_c    15.0
_cell_angle_alpha    90.0
_cell_angle_beta    90.0
_cell_angle_gamma    119.99999999999916

_symmetry_space_group_name_H-M    'P 1'
loop_
_atom_site_label
_atom_site_type_symbol
_atom_site_fract_x
_atom_site_fract_y
_atom_site_fract_z
_atom_site_occupancy
B2   B   0.904661470154820   0.952468482371445   0.110996308678959   1.0000000
B2   B   0.904853108532492   0.095325148434355   0.111024565450360   1.0000000
B2   B   0.904791296127029   0.238062373860054   0.111021656954849   1.0000000
B2   B   0.904524273963368   0.380740626201921   0.110969526812849   1.0000000
B2   B   0.904692611243164   0.523847186571052   0.110980092806205   1.0000000
B2   B   0.908849103678416   0.668749881666522   0.111096338348437   1.0000000
B2   B   0.904429298054879   0.809237692189302   0.111026629850555   1.0000000
B2   B   0.047861710735201   0.952691362124402   0.110988152713419   1.0000000
B2   B   0.047882912233114   0.095494546653761   0.110982538306499   1.0000000
B2   B   0.047911725733144   0.238182698240548   0.110978263234026   1.0000000
B2   B   0.047802697199269   0.380862219070289   0.111005901861573   1.0000000
B2   B   0.047692156451702   0.523774309770872   0.110998335000429   1.0000000
B2   B   0.049084169513097   0.666954523006169   0.111027771061153   1.0000000
B2   B   0.049072089518609   0.810759576175781   0.111021893913414   1.0000000
B2   B   0.191020289652144   0.952902351949392   0.110985911759787   1.0000000
B2   B   0.191091413265252   0.095892349894516   0.110988690603208   1.0000000
B2   B   0.191071110193179   0.238481598351400   0.110972141886234   1.0000000
B2   B   0.191140554485272   0.380933407257354   0.110977489100951   1.0000000
B2   B   0.190387252124822   0.523723361471937   0.111054370849987   1.0000000
B2   B   0.190985752652795   0.666770768793480   0.111061976643085   1.0000000
B2   B   0.191055229856601   0.809866997422090   0.110999483938461   1.0000000
B2   B   0.333554431179682   0.952502294339461   0.110998169225727   1.0000000
B2   B   0.333301689782279   0.095067989877160   0.111025589143450   1.0000000
B2   B   0.334597294311600   0.238810202095999   0.111063555859092   1.0000000
B2   B   0.335038912081990   0.381718454780941   0.111048496770954   1.0000000
B2   B   0.332981090934495   0.523912110842397   0.111044989261585   1.0000000
B2   B   0.333276508364825   0.666809206509523   0.111080900792498   1.0000000
B2   B   0.333536509985817   0.809716605189555   0.111051695833277   1.0000000
B2   B   0.476258845769174   0.952567277527438   0.110983640216883   1.0000000
B2   B   0.476130052061172   0.095323700174247   0.110964899263219   1.0000000
B2   B   0.475257396791400   0.237506233841141   0.111034529224543   1.0000000
B2   B   0.475464978179500   0.524511055198331   0.111174252245257   1.0000000
B2   B   0.475601121722730   0.667066980409038   0.111031969032206   1.0000000
B2   B   0.476175394932646   0.809795435558363   0.111044401157928   1.0000000
B2   B   0.619005306266610   0.952361983655185   0.110993246223333   1.0000000
B2   B   0.618929611315909   0.095273419112226   0.110974214929882   1.0000000
B2   B   0.618482659442153   0.237992964503404   0.110984604070447   1.0000000
B2   B   0.616905239704803   0.380515076553459   0.111021333307432   1.0000000
B2   B   0.617143538293114   0.665106431604327   0.110991915496242   1.0000000
B2   B   0.618793199562651   0.809182720917049   0.110981023541976   1.0000000
B2   B   0.761769571624252   0.952637995999140   0.110993422057396   1.0000000
B2   B   0.761850651502902   0.095233015421266   0.111028737936272   1.0000000
B2   B   0.761645361420852   0.237681276762246   0.111019881786432   1.0000000
B2   B   0.760935133431247   0.379594489103781   0.110980665846399   1.0000000
B2   B   0.759727329308630   0.520139973163283   0.111118434131997   1.0000000
B2   B   0.758919640589124   0.667325934244025   0.111107789073146   1.0000000
B2   B   0.761156357636405   0.810119300430311   0.110999665102184   1.0000000
C2   C   0.477330219654478   0.381094289308366   0.111360999570002   1.0000000
C2   C   0.525946732895380   0.474156924545805   0.111393366918263   1.0000000
C2   C   0.617646557650620   0.522091649618790   0.111179791270173   1.0000000
C2   C   0.809752466339329   0.619131290035406   0.111213880477320   1.0000000
N2   N   0.952247676166842   0.904687879276599   0.110981194453954   1.0000000
N2   N   0.952552169002575   0.047769326731826   0.110986295533071   1.0000000
N2   N   0.952582787921305   0.190587001541500   0.110996095739458   1.0000000
N2   N   0.952404972891447   0.333301516777367   0.110984666720636   1.0000000
N2   N   0.952157888476184   0.476077244457773   0.110939455213048   1.0000000
N2   N   0.954467501420740   0.619420645768029   0.111001684839603   1.0000000
N2   N   0.954442214936795   0.763608519084132   0.111019300290580   1.0000000
N2   N   0.096119912606959   0.905726348059154   0.110978130206493   1.0000000
N2   N   0.095691328467861   0.048106508347545   0.110964435922863   1.0000000
N2   N   0.095725698608699   0.190767179265841   0.110956519422479   1.0000000
N2   N   0.095715164658318   0.333365455901841   0.110966500816610   1.0000000
N2   N   0.095177647134937   0.476044792521652   0.111006418764848   1.0000000
N2   N   0.096057253105193   0.618996499956541   0.111012987934068   1.0000000
N2   N   0.096107829936044   0.762371913868705   0.110999329171008   1.0000000
N2   N   0.238490580786371   0.905101601503092   0.110963736553481   1.0000000
N2   N   0.238372469285630   0.047992728322190   0.110988433411243   1.0000000
N2   N   0.239250618015119   0.191516433851464   0.110976723417545   1.0000000
N2   N   0.239424951860367   0.333563619528563   0.110954811288220   1.0000000
N2   N   0.237961728500969   0.476087185648254   0.111003921785518   1.0000000
N2   N   0.238223069040304   0.618973132561121   0.111059314602650   1.0000000
N2   N   0.238458069107353   0.762057695135742   0.111023776386937   1.0000000
N2   N   0.381119929628756   0.904920146955941   0.110996759014901   1.0000000
N2   N   0.381030263238731   0.047653468310851   0.110983214329317   1.0000000
N2   N   0.380630411803850   0.189993089298875   0.111032079974415   1.0000000
N2   N   0.384490383918586   0.334747353118413   0.111132630740872   1.0000000
N2   N   0.380674623834872   0.476467186556038   0.111040253107724   1.0000000
N2   N   0.380576737090877   0.619100897293518   0.111046151924366   1.0000000
N2   N   0.380993463025543   0.762044270185571   0.111052946150018   1.0000000
N2   N   0.523823315499798   0.904981710330669   0.110992405799718   1.0000000
N2   N   0.523790989494495   0.047806159301199   0.110936246957426   1.0000000
N2   N   0.523506960067463   0.190591658414457   0.110958252609965   1.0000000
N2   N   0.521247312191073   0.332404928618616   0.111093623777684   1.0000000
N2   N   0.522541746805976   0.619175867541349   0.111005133104480   1.0000000
N2   N   0.523571035900437   0.762141394526447   0.111005937093008   1.0000000
N2   N   0.666530972624581   0.904642591509408   0.110966717542440   1.0000000
N2   N   0.666605839902967   0.047679608723302   0.110981623224390   1.0000000
N2   N   0.666371115963698   0.190565896187744   0.110986943554030   1.0000000
N2   N   0.665258273823446   0.333320715412958   0.110959776916829   1.0000000
N2   N   0.664512261288731   0.475353610427322   0.111030928420448   1.0000000
N2   N   0.663327356856567   0.616005818281661   0.111018529947203   1.0000000
N2   N   0.665996640807453   0.761110509918267   0.110959853426425   1.0000000
N2   N   0.809337615237174   0.905237325608705   0.110981687861490   1.0000000
N2   N   0.809559830037586   0.047821950011652   0.111009021284930   1.0000000
N2   N   0.809477461398257   0.190379311210954   0.111015210290468   1.0000000
N2   N   0.809038618592246   0.332635905022907   0.110972293011290   1.0000000
N2   N   0.808388121880985   0.474180313149897   0.110978389017896   1.0000000
N2   N   0.808077025344704   0.762331209469065   0.111011558903991   1.0000000


