data_1
_audit_creation_method   'vasp2cif'
_cell_length_a    17.52789999999977
_cell_length_b    17.52789999999977
_cell_length_c    15.0
_cell_angle_alpha    90.0
_cell_angle_beta    90.0
_cell_angle_gamma    119.99999999999916

_symmetry_space_group_name_H-M    'P 1'
loop_
_atom_site_label
_atom_site_type_symbol
_atom_site_fract_x
_atom_site_fract_y
_atom_site_fract_z
_atom_site_occupancy
B2   B   0.904421973005242   0.951708823698244   0.109564956196283   1.0000000
B2   B   0.905101490095443   0.094900007656222   0.110294538568136   1.0000000
B2   B   0.905246076482032   0.237860203209056   0.110906457079222   1.0000000
B2   B   0.905066293190581   0.380735473376569   0.111115518981874   1.0000000
B2   B   0.903874943550391   0.523342778461905   0.111082355862473   1.0000000
B2   B   0.902925214252295   0.665663406226782   0.109682282537353   1.0000000
B2   B   0.902686369814829   0.807778856218883   0.109059942007349   1.0000000
B2   B   0.047485806682440   0.952516063766347   0.109643461507138   1.0000000
B2   B   0.048293190668309   0.095580317583037   0.109562092361624   1.0000000
B2   B   0.048417950028224   0.238260592493484   0.110010831495691   1.0000000
B2   B   0.048128876266982   0.380989366015558   0.110599234642682   1.0000000
B2   B   0.047382823296293   0.523779750832652   0.110571557610067   1.0000000
B2   B   0.046793692517669   0.666545897962852   0.110206500939554   1.0000000
B2   B   0.046803609503747   0.809386425442469   0.109802791637746   1.0000000
B2   B   0.190615221775571   0.953198440342146   0.109800843456034   1.0000000
B2   B   0.192223004507610   0.097316420297759   0.109054681702601   1.0000000
B2   B   0.192114772429309   0.239404630372937   0.108936230630039   1.0000000
B2   B   0.191495599230419   0.381422876889130   0.111102951496701   1.0000000
B2   B   0.190636810953755   0.523985494014904   0.111279996496756   1.0000000
B2   B   0.190097576916278   0.666859123981965   0.110727631656866   1.0000000
B2   B   0.190098623045965   0.809903316089404   0.110273015645893   1.0000000
B2   B   0.333455710537673   0.953208034261561   0.110204807751239   1.0000000
B2   B   0.334338298666465   0.097076609351548   0.109676741858520   1.0000000
B2   B   0.337837448518604   0.243217088705719   0.107387746790257   1.0000000
B2   B   0.335596696728028   0.382840517864028   0.112500358029231   1.0000000
B2   B   0.333882717736160   0.524227759172918   0.116353650443536   1.0000000
B2   B   0.333131476926610   0.666869840564664   0.112972970939620   1.0000000
B2   B   0.333142387742211   0.809904026104246   0.110727108076439   1.0000000
B2   B   0.476221553750676   0.952618558646551   0.110569763616650   1.0000000
B2   B   0.476658931485690   0.096126694578529   0.111079091381737   1.0000000
B2   B   0.477580574323100   0.240408607822078   0.111252784575288   1.0000000
B2   B   0.486131702855367   0.391765406883833   0.105746698092935   1.0000000
B2   B   0.475699612341732   0.524301739719542   0.136412852831142   1.0000000
B2   B   0.475773063478523   0.666118082327047   0.116356921490940   1.0000000
B2   B   0.476014481640920   0.809363431977642   0.111283270456303   1.0000000
B2   B   0.619011721494610   0.951871930751552   0.110600505676292   1.0000000
B2   B   0.619266197367219   0.094935230322288   0.111113915347258   1.0000000
B2   B   0.619557347158326   0.237791154649876   0.112621648799955   1.0000000
B2   B   0.620015146180580   0.379988094636583   0.112606021613476   1.0000000
B2   B   0.608236846551425   0.513870890110974   0.105744104318855   1.0000000
B2   B   0.617161135325987   0.664405021858133   0.112501565714296   1.0000000
B2   B   0.618577727195346   0.808504032641805   0.111109076316068   1.0000000
B2   B   0.761740291944199   0.951583184610691   0.110013705856339   1.0000000
B2   B   0.762141559010870   0.094755612891487   0.110906658974644   1.0000000
B2   B   0.762293511958793   0.237708612962353   0.111536451763727   1.0000000
B2   B   0.762211213492161   0.380444980741288   0.112622314089116   1.0000000
B2   B   0.759594247886096   0.522422145898075   0.111255336812144   1.0000000
B2   B   0.756784872586163   0.662164777450435   0.107389351513094   1.0000000
B2   B   0.760598814615175   0.807887724701797   0.108942030354427   1.0000000
N2   N   0.951634892589827   0.903815099789836   0.109478465275434   1.0000000
N2   N   0.952697627104162   0.047304177004457   0.109920709181581   1.0000000
N2   N   0.952951022741197   0.190292528504076   0.110433859786937   1.0000000
N2   N   0.952845569682823   0.333174865999918   0.110796377536922   1.0000000
N2   N   0.952119625262127   0.476017696999396   0.110862608631559   1.0000000
N2   N   0.951382316593567   0.618657779012205   0.110321463867538   1.0000000
N2   N   0.951185135181248   0.761112831518228   0.109339203778181   1.0000000
N2   N   0.095063191517282   0.904938424999656   0.109820679337543   1.0000000
N2   N   0.096186637786130   0.048367101218447   0.109474687675839   1.0000000
N2   N   0.096335595764531   0.190979274787184   0.109329492325578   1.0000000
N2   N   0.095972970316747   0.333544297650828   0.110404954755085   1.0000000
N2   N   0.095297130907278   0.476279445876260   0.110511834136927   1.0000000
N2   N   0.094759974880283   0.619104453729908   0.110389534135372   1.0000000
N2   N   0.094659570979517   0.761956661751883   0.110100545573042   1.0000000
N2   N   0.238045002103908   0.905342367651123   0.110100223886742   1.0000000
N2   N   0.238888661635484   0.048816914929399   0.109334074465203   1.0000000
N2   N   0.241100789617126   0.193319092541984   0.108288653156727   1.0000000
N2   N   0.239732534358134   0.334463309542802   0.110141879757183   1.0000000
N2   N   0.238511786863454   0.476585476199821   0.112143638201745   1.0000000
N2   N   0.237830567320246   0.619291396098418   0.111483275238245   1.0000000
N2   N   0.237770014558281   0.762231655298262   0.110462463557957   1.0000000
N2   N   0.380897035756211   0.905241720813344   0.110387834274874   1.0000000
N2   N   0.381344312959194   0.048619446447363   0.110318444243130   1.0000000
N2   N   0.382517930055207   0.192679369501974   0.109067305549314   1.0000000
N2   N   0.387630802762746   0.340180563821651   0.105917929359116   1.0000000
N2   N   0.381812826430757   0.476945220955871   0.121786698705404   1.0000000
N2   N   0.380664498001995   0.619336171407591   0.116334219452023   1.0000000
N2   N   0.380709375058702   0.762170575303889   0.111484273909577   1.0000000
N2   N   0.523721722898355   0.904704160159036   0.110512449235286   1.0000000
N2   N   0.523984070923702   0.047882207035500   0.110859763038166   1.0000000
N2   N   0.524418240071098   0.191337951433890   0.112026562634098   1.0000000
N2   N   0.525689344006965   0.335690126306020   0.111981302123366   1.0000000
N2   N   0.523056552651483   0.618188723300582   0.121788160592542   1.0000000
N2   N   0.523415361524026   0.761489117854081   0.112150579195703   1.0000000
N2   N   0.666456511895094   0.904027345855487   0.110408272760245   1.0000000
N2   N   0.666826644376619   0.047155750713882   0.110796248023845   1.0000000
N2   N   0.667081763790727   0.189990885023879   0.111784007269539   1.0000000
N2   N   0.667473720955748   0.332528557383364   0.113302153068576   1.0000000
N2   N   0.664313360167595   0.474314622752535   0.111978208492731   1.0000000
N2   N   0.659821210809901   0.612371164799662   0.105915120661899   1.0000000
N2   N   0.665539511918534   0.760269129334018   0.110146382123720   1.0000000
N2   N   0.809022760344853   0.903666606914082   0.109333438567551   1.0000000
N2   N   0.809708457361998   0.047050246890956   0.110435625192219   1.0000000
N2   N   0.809951188771438   0.190050441497747   0.111144451949079   1.0000000
N2   N   0.810010629471028   0.332919793271991   0.111784931433541   1.0000000
N2   N   0.808663765535072   0.475584321178444   0.112029460206228   1.0000000
N2   N   0.807322411114413   0.617484777136604   0.109072784821651   1.0000000
N2   N   0.806683532023978   0.758901058214268   0.108293596534813   1.0000000


