data_1
_audit_creation_method   'vasp2cif'
_cell_length_a    17.52789999999977
_cell_length_b    17.52789999999977
_cell_length_c    15.0
_cell_angle_alpha    90.0
_cell_angle_beta    90.0
_cell_angle_gamma    119.99999999999916

_symmetry_space_group_name_H-M    'P 1'
loop_
_atom_site_label
_atom_site_type_symbol
_atom_site_fract_x
_atom_site_fract_y
_atom_site_fract_z
_atom_site_occupancy
B2   B   0.905136644526401   0.952728391823115   0.111025458562892   1.0000000
B2   B   0.904737684869723   0.095273814814703   0.111058790138983   1.0000000
B2   B   0.904701558521388   0.238079581494056   0.111065285341446   1.0000000
B2   B   0.904734169742341   0.380908551575906   0.111015911049243   1.0000000
B2   B   0.905133690097173   0.523837055462167   0.111015654956724   1.0000000
B2   B   0.905937654697446   0.667034807891760   0.111081102270589   1.0000000
B2   B   0.905939251141618   0.810339724819457   0.111060948122166   1.0000000
B2   B   0.047864103185326   0.952546364277843   0.111026706823509   1.0000000
B2   B   0.047653001427001   0.095335670555244   0.111029060692133   1.0000000
B2   B   0.047545870158778   0.238098952868491   0.111017747795053   1.0000000
B2   B   0.047537827115171   0.380872420309281   0.111032754282157   1.0000000
B2   B   0.047660629372949   0.523746317584276   0.111024873719181   1.0000000
B2   B   0.047885420567930   0.666762084761871   0.111041746558932   1.0000000
B2   B   0.048056645066239   0.809748187560565   0.111022371198771   1.0000000
B2   B   0.190470960171787   0.952273855097005   0.111018668219302   1.0000000
B2   B   0.190002135747967   0.094675970891224   0.111075632749014   1.0000000
B2   B   0.190327011656514   0.238013717040722   0.111021788825354   1.0000000
B2   B   0.190353419577136   0.380872943089194   0.111029300367782   1.0000000
B2   B   0.190329534422055   0.523723218895974   0.111083325455496   1.0000000
B2   B   0.190016399437731   0.666750434668060   0.111076818381839   1.0000000
B2   B   0.190486094881116   0.809612795550109   0.111015646026530   1.0000000
B2   B   0.333258836374206   0.952327987174691   0.111036318183871   1.0000000
B2   B   0.333077818231182   0.094708425097785   0.111084948597949   1.0000000
B2   B   0.331927067674734   0.236289640376867   0.111071608170185   1.0000000
B2   B   0.333295044866553   0.380434714110898   0.111070063914155   1.0000000
B2   B   0.333302767888014   0.524254591546288   0.111087232850053   1.0000000
B2   B   0.331929552174337   0.667048153776307   0.111086473818602   1.0000000
B2   B   0.333091715217655   0.809786359438007   0.111066186098078   1.0000000
B2   B   0.476139150413886   0.952559039061917   0.111023650667043   1.0000000
B2   B   0.476140481572933   0.095003573612260   0.111021109338260   1.0000000
B2   B   0.475889761149176   0.237247675737500   0.111058493152257   1.0000000
B2   B   0.473391522550287   0.377438431704867   0.110979737395304   1.0000000
B2   B   0.473402478540237   0.667390659478670   0.110936443932729   1.0000000
B2   B   0.475902804440011   0.810075011405928   0.111059598399841   1.0000000
B2   B   0.618982801216390   0.952303071030485   0.111035107187462   1.0000000
B2   B   0.619052702542469   0.095253183973121   0.111016759285448   1.0000000
B2   B   0.618982136138627   0.238129653841121   0.111028799870894   1.0000000
B2   B   0.618770640799113   0.381188032398889   0.111016493995180   1.0000000
B2   B   0.622256336662907   0.526830573334657   0.110945298103580   1.0000000
B2   B   0.622258334628121   0.666866156919525   0.110938685717805   1.0000000
B2   B   0.618788465869429   0.809027679770345   0.111011411979192   1.0000000
B2   B   0.761912061106706   0.952328844386486   0.111025262556986   1.0000000
B2   B   0.761873740735417   0.095225048066482   0.111065608102308   1.0000000
B2   B   0.761870189856118   0.238112597522814   0.111070665817110   1.0000000
B2   B   0.761900869918385   0.381015952479459   0.111028792601772   1.0000000
B2   B   0.762808350616851   0.524162829156737   0.111055911683550   1.0000000
B2   B   0.765101483295503   0.668274292675697   0.111049152457213   1.0000000
B2   B   0.762815225078143   0.810095296982951   0.111040601717093   1.0000000
C2   C   0.474200802233611   0.522806500651292   0.110967676214848   1.0000000
C2   C   0.521052766981505   0.477446247353207   0.110838866757334   1.0000000
C2   C   0.521047060569209   0.615041102634500   0.110749039551472   1.0000000
N2   N   0.952956095384600   0.905314261649885   0.111005464086432   1.0000000
N2   N   0.952524328772057   0.047867557896502   0.111006471186940   1.0000000
N2   N   0.952339182030180   0.190501796185394   0.111025434371839   1.0000000
N2   N   0.952336479182762   0.333285126903270   0.111009315347097   1.0000000
N2   N   0.952528822100561   0.476096838468735   0.110962011705148   1.0000000
N2   N   0.952963468713754   0.619078857062370   0.111017573449345   1.0000000
N2   N   0.953128177963023   0.762282562199402   0.111038282768028   1.0000000
N2   N   0.095427850096442   0.904886625490853   0.110976264107251   1.0000000
N2   N   0.095094985412530   0.047560935075161   0.111017544585252   1.0000000
N2   N   0.095223637128413   0.190582000917594   0.110978775258850   1.0000000
N2   N   0.095207490976207   0.333316073398372   0.110986251029694   1.0000000
N2   N   0.095226143648837   0.476066271788696   0.111016544121647   1.0000000
N2   N   0.095107902310389   0.618966744818493   0.111020994687941   1.0000000
N2   N   0.095438834360955   0.761980569903940   0.110990954093104   1.0000000
N2   N   0.238098158468681   0.904754721071519   0.110983719366025   1.0000000
N2   N   0.237912332395822   0.047364996610447   0.111039369600306   1.0000000
N2   N   0.237201153828892   0.189645762630526   0.111033515195885   1.0000000
N2   N   0.238145660500315   0.333478006974495   0.111005322204989   1.0000000
N2   N   0.238149462005282   0.476070219217149   0.111043927357692   1.0000000
N2   N   0.237206778493643   0.618968517497080   0.111062869747649   1.0000000
N2   N   0.237928335966103   0.761966755456442   0.111023135022506   1.0000000
N2   N   0.380896998456123   0.904889055825493   0.111013989275875   1.0000000
N2   N   0.380892226844452   0.047414627686187   0.111023309522686   1.0000000
N2   N   0.380504131577560   0.189740910508121   0.111054798316033   1.0000000
N2   N   0.378986429546508   0.331077594195648   0.111027145665083   1.0000000
N2   N   0.381425571083191   0.476412629027813   0.111056774847533   1.0000000
N2   N   0.378991578623520   0.619319914025958   0.111026418067020   1.0000000
N2   N   0.380516782917141   0.762180194073167   0.111048721275416   1.0000000
N2   N   0.523741205163759   0.905105915687571   0.111017604050133   1.0000000
N2   N   0.523842441283946   0.047635169408849   0.110966264152303   1.0000000
N2   N   0.523736946646189   0.190063827481225   0.111010377672031   1.0000000
N2   N   0.523102809941584   0.332154792068962   0.110997534445147   1.0000000
N2   N   0.523117390148691   0.762386642324948   0.110986852979366   1.0000000
N2   N   0.666504672728720   0.904417895460789   0.110999712652031   1.0000000
N2   N   0.666652261613876   0.047574074048058   0.111011146826442   1.0000000
N2   N   0.666651028992284   0.190531878455715   0.111018617197594   1.0000000
N2   N   0.666495893216371   0.333527620906175   0.110997854700408   1.0000000
N2   N   0.667510875814415   0.476907412165083   0.110996257559151   1.0000000
N2   N   0.671128007458705   0.621286489724561   0.110984908871188   1.0000000
N2   N   0.667519883369152   0.762048145201355   0.110997987797390   1.0000000
N2   N   0.809979021699640   0.905187154969475   0.111000773637429   1.0000000
N2   N   0.809471647242141   0.047590918399571   0.111024283391970   1.0000000
N2   N   0.809477547084747   0.190470877984787   0.111044516354859   1.0000000
N2   N   0.809471275359172   0.333333431427619   0.111018672283983   1.0000000
N2   N   0.809972108751879   0.476231467623272   0.111010101197557   1.0000000
N2   N   0.811206712335071   0.619486231620598   0.111047705276235   1.0000000
N2   N   0.811210462934170   0.763167608046928   0.111028343028792   1.0000000


