data_1
_audit_creation_method   'vasp2cif'
_cell_length_a    14.93631414619966
_cell_length_b    14.936314146199727
_cell_length_c    13.341276283792837
_cell_angle_alpha    90.0
_cell_angle_beta    90.0
_cell_angle_gamma    119.99999999999984

_symmetry_space_group_name_H-M    'P 1'
loop_
_atom_site_label
_atom_site_type_symbol
_atom_site_fract_x
_atom_site_fract_y
_atom_site_fract_z
_atom_site_occupancy
N2   N   0.111061130945480   0.055548373982981   0.124027424290377   1.0000000
N2   N   0.611250840778201   0.555835014890985   0.122305530334852   1.0000000
N2   N   0.444474131166858   0.055574950930493   0.123230312193826   1.0000000
N2   N   0.944425049069935   0.555525868833242   0.123230312193826   1.0000000
N2   N   0.777810299944291   0.055571816638368   0.124539506749613   1.0000000
N2   N   0.111096505511834   0.722214919423104   0.627332823480987   1.0000000
N2   N   0.444474131166858   0.722232513568606   0.626769687806943   1.0000000
N2   N   0.277662459564331   0.222177693082314   0.626987357808936   1.0000000
N2   N   0.777822306917510   0.722337540435826   0.626987357808936   1.0000000
N2   N   0.611181900185392   0.222177693082314   0.626987357808936   1.0000000
N2   N   0.944428183362035   0.222189700056735   0.625460493249360   1.0000000
N2   N   0.277785080576692   0.722214919423104   0.122667176519412   1.0000000
N2   N   0.111020244355011   0.222176788844141   0.124053867172958   1.0000000
N2   N   0.444451579458015   0.222236492249637   0.122866673134750   1.0000000
N2   N   0.611181900185392   0.722337540435826   0.123012642191524   1.0000000
N2   N   0.944425049069935   0.722232513568638   0.123230312193826   1.0000000
N2   N   0.777823211155213   0.222176788844141   0.124053867172958   1.0000000
N2   N   0.111099865626804   0.888900134373362   0.626719155799369   1.0000000
N2   N   0.444466935412392   0.888900134373362   0.626719155799369   1.0000000
N2   N   0.277662459564288   0.388818099814903   0.626987357808936   1.0000000
N2   N   0.611250840778201   0.388749159221172   0.627694469664253   1.0000000
N2   N   0.777823211155213   0.888979755643669   0.625946132826722   1.0000000
N2   N   0.944451626016362   0.388846090295620   0.625972575709658   1.0000000
N2   N   0.111061130945480   0.388846090295620   0.124027424290377   1.0000000
N2   N   0.277785080576692   0.888903494486712   0.122667176519412   1.0000000
N2   N   0.611153909704808   0.888938869053823   0.124027424290383   1.0000000
N2   N   0.444164985109379   0.388749159221172   0.122305530334861   1.0000000
N2   N   0.944451626016362   0.888938869053823   0.124027424290377   1.0000000
N2   N   0.777822306917510   0.388818099814903   0.123012642191523   1.0000000
N2   N   0.277767486431061   0.555525868833242   0.626769687806943   1.0000000
N2   N   0.111061130945480   0.055548373982981   0.625972575709658   1.0000000
N2   N   0.611250840778201   0.555835014890985   0.627694469664143   1.0000000
N2   N   0.444474131166860   0.055574950930493   0.626769687806943   1.0000000
N2   N   0.944425049069935   0.555525868833242   0.626769687806943   1.0000000
N2   N   0.111099865626804   0.555533064586476   0.123280844200550   1.0000000
N2   N   0.777810299944291   0.055571816638368   0.625460493249360   1.0000000
N2   N   0.277767486431061   0.055574950930493   0.123230312193826   1.0000000
N2   N   0.444451579458015   0.555548420542007   0.122866673134751   1.0000000
N2   N   0.777763507750633   0.555548420542007   0.122866673134752   1.0000000
N2   N   0.611153909704808   0.055548373982981   0.124027424290377   1.0000000
N2   N   0.444451579458015   0.555548420542007   0.627133326866187   1.0000000
N2   N   0.944428183362035   0.055571816638368   0.124539506749613   1.0000000
N2   N   0.277785080576692   0.722214919423104   0.627332823480987   1.0000000
N2   N   0.111020244355008   0.222176788844141   0.625946132826722   1.0000000
N2   N   0.444451579458015   0.222236492249637   0.627133326866187   1.0000000
N2   N   0.611181900185392   0.722337540435826   0.626987357808936   1.0000000
N2   N   0.944425049069935   0.722232513568606   0.626769687806943   1.0000000
N2   N   0.777823211155205   0.222176788844141   0.625946132826722   1.0000000
N2   N   0.111096505511834   0.722214919423104   0.122667176519412   1.0000000
N2   N   0.444474131166858   0.722232513568638   0.123230312193826   1.0000000
N2   N   0.277662459564331   0.222177693082314   0.123012642191523   1.0000000
N2   N   0.777822306917510   0.722337540435826   0.123012642191523   1.0000000
N2   N   0.611181900185392   0.222177693082314   0.123012642191515   1.0000000
N2   N   0.944428183362035   0.222189700056735   0.124539506749613   1.0000000
N2   N   0.111061130945480   0.388846090295620   0.625972575709658   1.0000000
N2   N   0.277785080576692   0.888903494486712   0.627332823480987   1.0000000
N2   N   0.611153909704808   0.888938869053823   0.625972575709658   1.0000000
N2   N   0.444164985109379   0.388749159221172   0.627694469664143   1.0000000
N2   N   0.944451626016362   0.888938869053823   0.625972575709658   1.0000000
N2   N   0.111099865626804   0.888900134373362   0.123280844200550   1.0000000
N2   N   0.777822306917510   0.388818099814903   0.626987357808936   1.0000000
N2   N   0.444466935412392   0.888900134373362   0.123280844200550   1.0000000
N2   N   0.277662459564288   0.388818099814903   0.123012642191515   1.0000000
N2   N   0.277767486431061   0.555525868833242   0.123230312193826   1.0000000
N2   N   0.611250840778201   0.388749159221172   0.122305530334856   1.0000000
N2   N   0.777823211155205   0.888979755643669   0.124053867172958   1.0000000
N2   N   0.944451626016362   0.388846090295620   0.124027424290383   1.0000000
N2   N   0.111099865626804   0.555533064586476   0.626719155799369   1.0000000
N2   N   0.277767486431061   0.055574950930493   0.626769687806943   1.0000000
N2   N   0.777763507750633   0.555548420542007   0.627133326866187   1.0000000
N2   N   0.611153909704808   0.055548373982981   0.625972575709658   1.0000000
N2   N   0.944428183362035   0.055571816638365   0.625460493249360   1.0000000
N2   N   0.054977645957575   0.110671613631283   0.375000000000000   1.0000000
N2   N   0.555852371021166   0.616334620352814   0.375000000000000   1.0000000
N2   N   0.388209080313423   0.109751493960193   0.375000000000000   1.0000000
N2   N   0.890248506039811   0.611790919686313   0.375000000000000   1.0000000
N2   N   0.722360634340431   0.110671613631283   0.375000000000000   1.0000000
N2   N   0.055573825312893   0.777785668650215   0.875000000000000   1.0000000
N2   N   0.388878510003312   0.777785668650215   0.875000000000000   1.0000000
N2   N   0.222233635362010   0.277783484347618   0.875000000000000   1.0000000
N2   N   0.722216515652106   0.777766364638099   0.875000000000000   1.0000000
N2   N   0.555535453447894   0.277758377682992   0.875000000000000   1.0000000
N2   N   0.888889045012898   0.277782158972588   0.875000000000000   1.0000000
N2   N   0.222222222222221   0.777777777777779   0.375000000000000   1.0000000
N2   N   0.054977645957569   0.277639365659637   0.375000000000000   1.0000000
N2   N   0.383665379646058   0.272851084001409   0.375000000000000   1.0000000
N2   N   0.555248346915495   0.779802678917680   0.375000000000000   1.0000000
N2   N   0.891220998669708   0.779802678917680   0.375000000000000   1.0000000
N2   N   0.723221081245901   0.276778918755744   0.375000000000000   1.0000000
N2   N   0.055558760942989   0.944441239057640   0.875000000000000   1.0000000
N2   N   0.388878510003312   0.944426174687815   0.875000000000000   1.0000000
N2   N   0.222222066601565   0.444456426175888   0.875000000000000   1.0000000
N2   N   0.555555555555557   0.444444444444443   0.875000000000000   1.0000000
N2   N   0.722217841026949   0.944440219373105   0.875000000000000   1.0000000
N2   N   0.888901026241625   0.444456426175888   0.875000000000000   1.0000000
N2   N   0.055712917713877   0.444759168761492   0.375000000000000   1.0000000
N2   N   0.222011995474875   0.943800012823927   0.375000000000000   1.0000000
N2   N   0.555240831239202   0.944287082285290   0.375000000000000   1.0000000
N2   N   0.383665379646058   0.444147628978353   0.375000000000000   1.0000000
N2   N   0.889328386369190   0.945022354042927   0.375000000000000   1.0000000
N2   N   0.727148915998992   0.444147628978353   0.375000000000000   1.0000000
N2   N   0.222214331350862   0.611121489998018   0.875000000000000   1.0000000
N2   N   0.055559780625959   0.111110954986542   0.875000000000000   1.0000000
N2   N   0.555535453447894   0.611110409100345   0.875000000000000   1.0000000
N2   N   0.388871530948202   0.111076395229341   0.875000000000000   1.0000000
N2   N   0.888923604770253   0.611128469051951   0.875000000000000   1.0000000
N2   N   0.056199987175094   0.611545315984308   0.375000000000000   1.0000000
N2   N   0.722217841026949   0.111110954986542   0.875000000000000   1.0000000
N2   N   0.220197321082090   0.108779001331275   0.375000000000000   1.0000000
N2   N   0.388209080313423   0.611790919686313   0.375000000000000   1.0000000
N2   N   0.727148915998994   0.616334620352814   0.375000000000000   1.0000000
N2   N   0.555248346915495   0.108779001331275   0.375000000000000   1.0000000
N2   N   0.388871530948202   0.611128469051951   0.875000000000000   1.0000000
N2   N   0.888888888888886   0.111111111111114   0.375000000000000   1.0000000
N2   N   0.222222222222221   0.777777777777779   0.875000000000000   1.0000000
N2   N   0.055559780625959   0.277782158972588   0.875000000000000   1.0000000
N2   N   0.388889590900228   0.277758377682992   0.875000000000000   1.0000000
N2   N   0.555543573823010   0.777777933398984   0.875000000000000   1.0000000
N2   N   0.888901026241625   0.777777933398984   0.875000000000000   1.0000000
N2   N   0.722216515652106   0.277783484347618   0.875000000000000   1.0000000
N2   N   0.056199987175096   0.777988004525932   0.375000000000000   1.0000000
N2   N   0.388454684016041   0.777988004525932   0.375000000000000   1.0000000
N2   N   0.220224504177230   0.276778918755744   0.375000000000000   1.0000000
N2   N   0.723221081245901   0.779775495821848   0.375000000000000   1.0000000
N2   N   0.555852371020295   0.272851084001409   0.375000000000000   1.0000000
N2   N   0.889328386369190   0.277639365659637   0.375000000000000   1.0000000
N2   N   0.055558760942989   0.444450855218822   0.875000000000000   1.0000000
N2   N   0.222214331350862   0.944426174687815   0.875000000000000   1.0000000
N2   N   0.555549144780334   0.944441239057640   0.875000000000000   1.0000000
N2   N   0.388889590900228   0.444464546549584   0.875000000000000   1.0000000
N2   N   0.888889045012898   0.944440219373105   0.875000000000000   1.0000000
N2   N   0.055712917713869   0.944287082285290   0.375000000000000   1.0000000
N2   N   0.722241622315754   0.444464546549584   0.875000000000000   1.0000000
N2   N   0.388454684016041   0.943800012823927   0.375000000000000   1.0000000
N2   N   0.220197321082090   0.444751653084932   0.375000000000000   1.0000000
N2   N   0.222011995474875   0.611545315984308   0.375000000000000   1.0000000
N2   N   0.722360634340431   0.945022354042927   0.375000000000000   1.0000000
N2   N   0.891220998669708   0.444751653084921   0.375000000000000   1.0000000
N2   N   0.055573825312893   0.611121489998018   0.875000000000000   1.0000000
N2   N   0.222222066601565   0.111098973759124   0.875000000000000   1.0000000
N2   N   0.722241622315739   0.611110409100345   0.875000000000000   1.0000000
N2   N   0.555543573823010   0.111098973759124   0.875000000000000   1.0000000
N2   N   0.888888888888886   0.111111111111114   0.875000000000000   1.0000000
B2   B   0.110445642373534   0.054839880983145   0.375000000000000   1.0000000
B2   B   0.614048778024009   0.561430889380239   0.375000000000000   1.0000000
B2   B   0.444148579985588   0.055084696867884   0.375000000000000   1.0000000
B2   B   0.944915303131482   0.555851420013125   0.375000000000000   1.0000000
B2   B   0.777840100949665   0.055586717141926   0.375000000000000   1.0000000
B2   B   0.111084205994383   0.722208769662244   0.875000000000000   1.0000000
B2   B   0.444446749032483   0.722151416658461   0.875000000000000   1.0000000
B2   B   0.277946040099123   0.222327362664969   0.875000000000000   1.0000000
B2   B   0.777672637334863   0.722053959899944   0.875000000000000   1.0000000
B2   B   0.611047989231955   0.222327362664969   0.875000000000000   1.0000000
B2   B   0.944462377505805   0.222258088345481   0.875000000000000   1.0000000
B2   B   0.277667782153269   0.722332217846236   0.375000000000000   1.0000000
B2   B   0.110646090271661   0.221989711802333   0.375000000000000   1.0000000
B2   B   0.444556959797311   0.222447252928431   0.375000000000000   1.0000000
B2   B   0.610990392619369   0.724344916993785   0.375000000000000   1.0000000
B2   B   0.944915303131482   0.722397216449762   0.375000000000000   1.0000000
B2   B   0.778010288198796   0.221989711802333   0.375000000000000   1.0000000
B2   B   0.111115099654033   0.888884900346351   0.875000000000000   1.0000000
B2   B   0.444436467358528   0.888884900346351   0.875000000000000   1.0000000
B2   B   0.277946040099123   0.388952010767234   0.875000000000000   1.0000000
B2   B   0.611039198646714   0.388960801352097   0.875000000000000   1.0000000
B2   B   0.777716640408073   0.888766614147869   0.875000000000000   1.0000000
B2   B   0.944412656794723   0.388931861562663   0.875000000000000   1.0000000
B2   B   0.110445642373533   0.388939094723694   0.375000000000000   1.0000000
B2   B   0.277667782153269   0.888668897639867   0.375000000000000   1.0000000
B2   B   0.611060905275422   0.889554357627462   0.375000000000000   1.0000000
B2   B   0.438569110619631   0.385951221976545   0.375000000000000   1.0000000
B2   B   0.945160119015958   0.889554357627462   0.375000000000000   1.0000000
B2   B   0.780021191040021   0.389009607378952   0.375000000000000   1.0000000
B2   B   0.277848583340096   0.555553250967837   0.875000000000000   1.0000000
B2   B   0.111185871432948   0.055587343203906   0.875000000000000   1.0000000
B2   B   0.611039198646714   0.555411730629134   0.875000000000000   1.0000000
B2   B   0.444446749032483   0.055628665705230   0.875000000000000   1.0000000
B2   B   0.944371334294129   0.555553250967837   0.875000000000000   1.0000000
B2   B   0.111251277495162   0.555835888325530   0.375000000000000   1.0000000
B2   B   0.777741911655127   0.055537622493854   0.875000000000000   1.0000000
B2   B   0.277602783548723   0.055084696867884   0.375000000000000   1.0000000
B2   B   0.444556959797311   0.555443040202927   0.375000000000000   1.0000000
B2   B   0.777552747072043   0.555443040202927   0.375000000000000   1.0000000
B2   B   0.611060905275422   0.054839880983139   0.375000000000000   1.0000000
B2   B   0.444503084441911   0.555496915558548   0.875000000000000   1.0000000
B2   B   0.944413282857950   0.055586717141926   0.375000000000000   1.0000000
B2   B   0.277791230336484   0.722208769662244   0.875000000000000   1.0000000
B2   B   0.111233385851013   0.222283359592524   0.875000000000000   1.0000000
B2   B   0.444503084441911   0.222339502217288   0.875000000000000   1.0000000
B2   B   0.611047989231955   0.722053959899944   0.875000000000000   1.0000000
B2   B   0.944371334294129   0.722151416658461   0.875000000000000   1.0000000
B2   B   0.777716640408073   0.222283359592524   0.875000000000000   1.0000000
B2   B   0.111331102360313   0.722332217846236   0.375000000000000   1.0000000
B2   B   0.444148579985588   0.722397216449762   0.375000000000000   1.0000000
B2   B   0.275655083007685   0.219978808961581   0.375000000000000   1.0000000
B2   B   0.780021191040021   0.724344916993785   0.375000000000000   1.0000000
B2   B   0.610990392619369   0.219978808961581   0.375000000000000   1.0000000
B2   B   0.944413282857950   0.222159899049360   0.375000000000000   1.0000000
B2   B   0.111185871432948   0.388931861562663   0.875000000000000   1.0000000
B2   B   0.277791230336484   0.888915794006297   0.875000000000000   1.0000000
B2   B   0.611068138437934   0.888814128567747   0.875000000000000   1.0000000
B2   B   0.444588269371479   0.388960801352097   0.875000000000000   1.0000000
B2   B   0.944412656794723   0.888814128567747   0.875000000000000   1.0000000
B2   B   0.111251277495165   0.888748722505789   0.375000000000000   1.0000000
B2   B   0.777672637334863   0.388952010767234   0.875000000000000   1.0000000
B2   B   0.444164111676777   0.888748722505789   0.375000000000000   1.0000000
B2   B   0.275655083007685   0.389009607378952   0.375000000000000   1.0000000
B2   B   0.277602783548723   0.555851420013125   0.375000000000000   1.0000000
B2   B   0.614048778024009   0.385951221976545   0.375000000000000   1.0000000
B2   B   0.778010288198796   0.889353909728271   0.375000000000000   1.0000000
B2   B   0.945160119015958   0.388939094723694   0.375000000000000   1.0000000
B2   B   0.111115099654033   0.555563532641273   0.875000000000000   1.0000000
B2   B   0.277848583340099   0.055628665705229   0.875000000000000   1.0000000
B2   B   0.777660497782843   0.555496915558548   0.875000000000000   1.0000000
B2   B   0.611068138437934   0.055587343203906   0.875000000000000   1.0000000
B2   B   0.944462377505805   0.055537622493854   0.875000000000000   1.0000000
B2   B   0.055581314007495   0.111160558326334   0.124619702079997   1.0000000
B2   B   0.555746313002799   0.610819106080373   0.123772147211068   1.0000000
B2   B   0.389107917704336   0.111549168742156   0.123635486525680   1.0000000
B2   B   0.888450831257984   0.610892082295816   0.123635486525680   1.0000000
B2   B   0.722245910985089   0.111160558326334   0.124619702079997   1.0000000
B2   B   0.055379479008264   0.777720872256297   0.626626162695819   1.0000000
B2   B   0.389008059916832   0.777720872256297   0.626626162695819   1.0000000
B2   B   0.222370721063120   0.277852027198451   0.626062538578841   1.0000000
B2   B   0.722147972800767   0.777629278936433   0.626062538578841   1.0000000
B2   B   0.555746313002799   0.278260540256637   0.626227852787621   1.0000000
B2   B   0.888839441671570   0.277754089015176   0.625380297920121   1.0000000
B2   B   0.222222222222221   0.777777777777779   0.122855911807037   1.0000000
B2   B   0.055581314007495   0.277754089015176   0.124619702079997   1.0000000
B2   B   0.389180893920062   0.278260540256637   0.123772147211068   1.0000000
B2   B   0.555660393225437   0.777631176796626   0.123902941528231   1.0000000
B2   B   0.888637450239540   0.777631176796626   0.123902941528231   1.0000000
B2   B   0.722147972800767   0.277852027198451   0.123937461420379   1.0000000
B2   B   0.055506556528883   0.944493443470987   0.625818725422745   1.0000000
B2   B   0.389008059916823   0.944620520992433   0.626626162695819   1.0000000
B2   B   0.222368823202765   0.444339606774617   0.626097058472057   1.0000000
B2   B   0.555555555555557   0.444444444444443   0.620833792653501   1.0000000
B2   B   0.722245910985089   0.944418685992828   0.625380297920121   1.0000000
B2   B   0.888637450239540   0.444339606774617   0.626097058472057   1.0000000
B2   B   0.055506556528883   0.444346446390126   0.124181274575995   1.0000000
B2   B   0.222279127742116   0.944620520992433   0.123373837304547   1.0000000
B2   B   0.555653553608807   0.944493443470982   0.124181274575997   1.0000000
B2   B   0.389180893920062   0.444253686997559   0.123772147211068   1.0000000
B2   B   0.888839441671570   0.944418685992828   0.124619702079997   1.0000000
B2   B   0.721739459745139   0.444253686997559   0.123772147211068   1.0000000
B2   B   0.222279127742116   0.610991940083539   0.626626162695819   1.0000000
B2   B   0.055581314007495   0.111160558326334   0.625380297920121   1.0000000
B2   B   0.555746313002799   0.610819106080373   0.626227852787625   1.0000000
B2   B   0.389107917704328   0.111549168742156   0.626364513474680   1.0000000
B2   B   0.888450831257984   0.610892082295816   0.626364513474680   1.0000000
B2   B   0.055379479008264   0.610991940083539   0.123373837304547   1.0000000
B2   B   0.722245910985089   0.111160558326334   0.625380297920121   1.0000000
B2   B   0.222368823202765   0.111362549761552   0.123902941528231   1.0000000
B2   B   0.389107917704328   0.610892082295816   0.123635486525680   1.0000000
B2   B   0.721739459745139   0.610819106080373   0.123772147211068   1.0000000
B2   B   0.555660393225437   0.111362549761552   0.123902941528231   1.0000000
B2   B   0.389107917704336   0.610892082295816   0.626364513474680   1.0000000
B2   B   0.888888888888886   0.111111111111114   0.124935517032634   1.0000000
B2   B   0.222222222222221   0.777777777777779   0.627144088193300   1.0000000
B2   B   0.055581314007495   0.277754089015176   0.625380297920121   1.0000000
B2   B   0.389180893920062   0.278260540256637   0.626227852787621   1.0000000
B2   B   0.555660393225437   0.777631176796626   0.626097058472057   1.0000000
B2   B   0.888637450239540   0.777631176796626   0.626097058472057   1.0000000
B2   B   0.722147972800767   0.277852027198451   0.626062538578989   1.0000000
B2   B   0.055379479008264   0.777720872256297   0.123373837304547   1.0000000
B2   B   0.389008059916832   0.777720872256297   0.123373837304547   1.0000000
B2   B   0.222370721063120   0.277852027198451   0.123937461420379   1.0000000
B2   B   0.722147972800767   0.777629278936433   0.123937461420379   1.0000000
B2   B   0.555746313002799   0.278260540256637   0.123772147211047   1.0000000
B2   B   0.888839441671570   0.277754089015176   0.124619702079997   1.0000000
B2   B   0.055506556528883   0.444346446390126   0.625818725422745   1.0000000
B2   B   0.222279127742116   0.944620520992433   0.626626162695819   1.0000000
B2   B   0.555653553608807   0.944493443470982   0.625818725422745   1.0000000
B2   B   0.389180893920062   0.444253686997559   0.626227852787621   1.0000000
B2   B   0.888839441671570   0.944418685992828   0.625380297920121   1.0000000
B2   B   0.055506556528883   0.944493443470987   0.124181274575997   1.0000000
B2   B   0.721739459745139   0.444253686997559   0.626227852787625   1.0000000
B2   B   0.389008059916832   0.944620520992433   0.123373837304547   1.0000000
B2   B   0.222368823202765   0.444339606774617   0.123902941528231   1.0000000
B2   B   0.222279127742116   0.610991940083539   0.123373837304547   1.0000000
B2   B   0.555555555555557   0.444444444444443   0.129166207346573   1.0000000
B2   B   0.722245910985089   0.944418685992828   0.124619702079997   1.0000000
B2   B   0.888637450239540   0.444339606774617   0.123902941528231   1.0000000
B2   B   0.055379479008264   0.610991940083539   0.626626162695819   1.0000000
B2   B   0.222368823202765   0.111362549761552   0.626097058472057   1.0000000
B2   B   0.721739459745139   0.610819106080373   0.626227852787621   1.0000000
B2   B   0.555660393225437   0.111362549761552   0.626097058472057   1.0000000
B2   B   0.888888888888886   0.111111111111114   0.625064482965891   1.0000000
B2   B   0.555555555555557   0.444444444444443   0.375000000000000   1.0000000


