data_1
_audit_creation_method   'vasp2cif'
_cell_length_a    14.93631414619966
_cell_length_b    14.936314146199727
_cell_length_c    13.341276283792837
_cell_angle_alpha    90.0
_cell_angle_beta    90.0
_cell_angle_gamma    119.99999999999984

_symmetry_space_group_name_H-M    'P 1'
loop_
_atom_site_label
_atom_site_type_symbol
_atom_site_fract_x
_atom_site_fract_y
_atom_site_fract_z
_atom_site_occupancy
S2   S   0.451922286479937   0.392627809906632   0.375000000000000   1.0000000
N2   N   0.111092627692619   0.055530193009631   0.125254027799297   1.0000000
N2   N   0.611107282817482   0.555537499116084   0.126599192700089   1.0000000
N2   N   0.444410052308874   0.055540873173025   0.125363931830815   1.0000000
N2   N   0.944467800725398   0.555573907493015   0.125239967583497   1.0000000
N2   N   0.777740679427560   0.055537006380448   0.125156956653473   1.0000000
N2   N   0.111118469809328   0.722225901571329   0.624826561659296   1.0000000
N2   N   0.444410052308874   0.722202512469185   0.624636068169185   1.0000000
N2   N   0.277753309055587   0.222204223161941   0.624287868401704   1.0000000
N2   N   0.777784836611949   0.722205184192107   0.624496469421409   1.0000000
N2   N   0.611080326633671   0.222230587511029   0.624408259335777   1.0000000
N2   N   0.944423985497120   0.222221982915275   0.624858010512404   1.0000000
N2   N   0.277760441521191   0.722218074023990   0.125197023301940   1.0000000
N2   N   0.111093866042346   0.222213599687837   0.125291390760035   1.0000000
N2   N   0.444421558766388   0.222226808738467   0.126036837574294   1.0000000
N2   N   0.611080326633671   0.722183072455969   0.125591740664221   1.0000000
N2   N   0.944467800725398   0.722227226565719   0.125239967583497   1.0000000
N2   N   0.777752729881305   0.222228800881853   0.125192830972126   1.0000000
N2   N   0.111110304627947   0.888876666238400   0.624806276783691   1.0000000
N2   N   0.444407856075554   0.888870594704442   0.624833968951006   1.0000000
N2   N   0.277753309055587   0.388882419226975   0.624287868401704   1.0000000
N2   N   0.611107282817482   0.388903117034726   0.623400807299911   1.0000000
N2   N   0.777752729881305   0.888857262332781   0.624807169027874   1.0000000
N2   N   0.944443259039234   0.388904112338145   0.624852209665863   1.0000000
N2   N   0.111092627692619   0.388895768016316   0.125254027799297   1.0000000
N2   N   0.277760441521191   0.888875700830530   0.125197023301940   1.0000000
N2   N   0.611066453161781   0.888858367310470   0.125188259218046   1.0000000
N2   N   0.444373891179617   0.388853612256472   0.126170752578070   1.0000000
N2   N   0.944443259039234   0.888872480034416   0.125147790334137   1.0000000
N2   N   0.777784836611949   0.388912985753170   0.125503530578591   1.0000000
N2   N   0.277760835070401   0.555554221917700   0.624562956791608   1.0000000
N2   N   0.111092627692619   0.055530193009631   0.624745972200703   1.0000000
N2   N   0.611107282817482   0.555537499116084   0.623400807299911   1.0000000
N2   N   0.444410052308874   0.055540873173025   0.624636068169185   1.0000000
N2   N   0.944467800725398   0.555573907493015   0.624760032416503   1.0000000
N2   N   0.111110304627947   0.555566971722875   0.125193723216309   1.0000000
N2   N   0.777740679427560   0.055537006380448   0.624843043346527   1.0000000
N2   N   0.277760835070401   0.055539946486037   0.125437043208391   1.0000000
N2   N   0.444421558766388   0.555528083361257   0.126036837574294   1.0000000
N2   N   0.777804450618709   0.555568891976022   0.125773437507671   1.0000000
N2   N   0.611066453161781   0.055541419184640   0.125188259218046   1.0000000
N2   N   0.444421558766388   0.555528083361257   0.623963162425706   1.0000000
N2   N   0.944423985497120   0.055535335915181   0.125141989487596   1.0000000
N2   N   0.277760441521191   0.722218074023990   0.624802976698061   1.0000000
N2   N   0.111093866042346   0.222213599687837   0.624708609239966   1.0000000
N2   N   0.444421558766388   0.222226808738467   0.623963162425706   1.0000000
N2   N   0.611080326633671   0.722183072455969   0.624408259335777   1.0000000
N2   N   0.944467800725398   0.722227226565719   0.624760032416503   1.0000000
N2   N   0.777752729881305   0.222228800881853   0.624807169027874   1.0000000
N2   N   0.111118469809328   0.722225901571329   0.125173438340704   1.0000000
N2   N   0.444410052308874   0.722202512469185   0.125363931830815   1.0000000
N2   N   0.277753309055587   0.222204223161941   0.125712131598297   1.0000000
N2   N   0.777784836611949   0.722205184192107   0.125503530578591   1.0000000
N2   N   0.611080326633671   0.222230587511029   0.125591740664221   1.0000000
N2   N   0.944423985497120   0.222221982915275   0.125141989487596   1.0000000
N2   N   0.111092627692619   0.388895768016316   0.624745972200703   1.0000000
N2   N   0.277760441521191   0.888875700830530   0.624802976698061   1.0000000
N2   N   0.611066453161781   0.888858367310470   0.624811740781954   1.0000000
N2   N   0.444373891179617   0.388853612256472   0.623829247421930   1.0000000
N2   N   0.944443259039234   0.888872480034416   0.624852209665863   1.0000000
N2   N   0.111110304627947   0.888876666238400   0.125193723216309   1.0000000
N2   N   0.777784836611949   0.388912985753170   0.624496469421409   1.0000000
N2   N   0.444407856075554   0.888870594704442   0.125166031048994   1.0000000
N2   N   0.277753309055587   0.388882419226975   0.125712131598297   1.0000000
N2   N   0.277760835070401   0.555554221917700   0.125437043208391   1.0000000
N2   N   0.611107282817482   0.388903117034726   0.126599192700089   1.0000000
N2   N   0.777752729881305   0.888857262332781   0.125192830972126   1.0000000
N2   N   0.944443259039234   0.388904112338145   0.125147790334137   1.0000000
N2   N   0.111110304627947   0.555566971722875   0.624806276783691   1.0000000
N2   N   0.277760835070401   0.055539946486037   0.624562956791608   1.0000000
N2   N   0.777804450618709   0.555568891976022   0.624226562492329   1.0000000
N2   N   0.611066453161781   0.055541419184640   0.624811740781954   1.0000000
N2   N   0.944423985497120   0.055535335915181   0.624858010512404   1.0000000
N2   N   0.053415295101675   0.109824160963090   0.375000000000000   1.0000000
N2   N   0.555059614694181   0.606492630208466   0.375000000000000   1.0000000
N2   N   0.388631846777192   0.111044882090176   0.375000000000000   1.0000000
N2   N   0.892068090305865   0.612700711819603   0.375000000000000   1.0000000
N2   N   0.721492174546171   0.111042447603607   0.375000000000000   1.0000000
N2   N   0.055551543718522   0.777779487199161   0.875000000000000   1.0000000
N2   N   0.388899536973522   0.777780917672589   0.875000000000000   1.0000000
N2   N   0.222221757823143   0.277777545578239   0.875000000000000   1.0000000
N2   N   0.722223502282931   0.777782272716087   0.875000000000000   1.0000000
N2   N   0.555558217935616   0.277780659898800   0.875000000000000   1.0000000
N2   N   0.888890547748296   0.277775535562908   0.875000000000000   1.0000000
N2   N   0.223189849899886   0.778261591616612   0.375000000000000   1.0000000
N2   N   0.053415295101675   0.276924467471920   0.375000000000000   1.0000000
N2   N   0.382168674111395   0.271194313126830   0.375000000000000   1.0000000
N2   N   0.555512060181692   0.776341764045636   0.375000000000000   1.0000000
N2   N   0.890459484670509   0.778672214815264   0.375000000000000   1.0000000
N2   N   0.722114719546824   0.278535094393362   0.375000000000000   1.0000000
N2   N   0.055554094364046   0.944449359119322   0.875000000000000   1.0000000
N2   N   0.388899536973522   0.944451952634268   0.875000000000000   1.0000000
N2   N   0.222222986784922   0.444439286712033   0.875000000000000   1.0000000
N2   N   0.555555824934154   0.444444579133741   0.875000000000000   1.0000000
N2   N   0.722226415005615   0.944448852406562   0.875000000000000   1.0000000
N2   N   0.888886596332797   0.444437805159829   0.875000000000000   1.0000000
N2   N   0.055087279483222   0.444412661517522   0.375000000000000   1.0000000
N2   N   0.222573998279939   0.944710824254253   0.375000000000000   1.0000000
N2   N   0.555541673052833   0.944437503193081   0.375000000000000   1.0000000
N2   N   0.382168674111395   0.444307694317901   0.375000000000000   1.0000000
N2   N   0.887917065265109   0.943720350547333   0.375000000000000   1.0000000
N2   N   0.726927105157547   0.447303562001425   0.375000000000000   1.0000000
N2   N   0.222225333095190   0.611106141000269   0.875000000000000   1.0000000
N2   N   0.055553349081781   0.111111794042904   0.875000000000000   1.0000000
N2   N   0.555558217935616   0.611110891370153   0.875000000000000   1.0000000
N2   N   0.388897386872647   0.111120997741988   0.875000000000000   1.0000000
N2   N   0.888881196234714   0.611107264784029   0.875000000000000   1.0000000
N2   N   0.056995205781754   0.611746738715867   0.375000000000000   1.0000000
N2   N   0.722226415005615   0.111110895932389   0.875000000000000   1.0000000
N2   N   0.219740697558818   0.109174964205305   0.375000000000000   1.0000000
N2   N   0.388631846777192   0.610920298020359   0.375000000000000   1.0000000
N2   N   0.726927105157547   0.612956876489458   0.375000000000000   1.0000000
N2   N   0.555512060181692   0.112503629469392   0.375000000000000   1.0000000
N2   N   0.388897386872647   0.611109722464002   0.875000000000000   1.0000000
N2   N   0.887395343833336   0.110364338583339   0.375000000000000   1.0000000
N2   N   0.222227022937293   0.777780178135314   0.875000000000000   1.0000000
N2   N   0.055553349081781   0.277774888372213   0.875000000000000   1.0000000
N2   N   0.388892883210129   0.277781809676180   0.875000000000000   1.0000000
N2   N   0.555562612743810   0.777782153902017   0.875000000000000   1.0000000
N2   N   0.888886596332797   0.777782124506303   0.875000000000000   1.0000000
N2   N   0.722223502282931   0.277774562900179   0.875000000000000   1.0000000
N2   N   0.056995205781754   0.778581800399224   0.375000000000000   1.0000000
N2   N   0.389376275354680   0.777864069418848   0.375000000000000   1.0000000
N2   N   0.218484034114364   0.275908683723850   0.375000000000000   1.0000000
N2   N   0.722114719546824   0.776912958486799   0.375000000000000   1.0000000
N2   N   0.555059614694181   0.281900317819050   0.375000000000000   1.0000000
N2   N   0.887917065265109   0.277530048051112   0.375000000000000   1.0000000
N2   N   0.055554094364046   0.444438068578053   0.875000000000000   1.0000000
N2   N   0.222225333095190   0.944452525428257   0.875000000000000   1.0000000
N2   N   0.555562597035109   0.944447965184218   0.875000000000000   1.0000000
N2   N   0.388892883210129   0.444444406867284   0.875000000000000   1.0000000
N2   N   0.888890547748296   0.944448345518723   0.875000000000000   1.0000000
N2   N   0.055087279483222   0.944007951299029   0.375000000000000   1.0000000
N2   N   0.722216600238428   0.444439432772914   0.875000000000000   1.0000000
N2   N   0.389376275354680   0.944845539269168   0.375000000000000   1.0000000
N2   N   0.219740697558818   0.443899066686849   0.375000000000000   1.0000000
N2   N   0.222573998279939   0.611196507359022   0.375000000000000   1.0000000
N2   N   0.721492174546171   0.943783060275901   0.375000000000000   1.0000000
N2   N   0.890459484670509   0.445120603188581   0.375000000000000   1.0000000
N2   N   0.055551543718522   0.611105389852695   0.875000000000000   1.0000000
N2   N   0.222222986784922   0.111117033406224   0.875000000000000   1.0000000
N2   N   0.722216600238428   0.611110500798851   0.875000000000000   1.0000000
N2   N   0.555562612743810   0.111113792175128   0.875000000000000   1.0000000
N2   N   0.888891663448913   0.111112498391128   0.875000000000000   1.0000000
B2   B   0.108379761006139   0.053918426025385   0.375000000000000   1.0000000
B2   B   0.621621363072548   0.565346316953292   0.375000000000000   1.0000000
B2   B   0.444609407070477   0.055131470333668   0.375000000000000   1.0000000
B2   B   0.946913189410223   0.556309458958640   0.375000000000000   1.0000000
B2   B   0.776683094336078   0.055008213834707   0.375000000000000   1.0000000
B2   B   0.111117653449908   0.722225493391618   0.875000000000000   1.0000000
B2   B   0.444455699881105   0.722273279982285   0.875000000000000   1.0000000
B2   B   0.277707342996142   0.222168623574906   0.875000000000000   1.0000000
B2   B   0.777825053386977   0.722291331439358   0.875000000000000   1.0000000
B2   B   0.611147572272932   0.222175905064316   0.875000000000000   1.0000000
B2   B   0.944420070145987   0.222200706552834   0.875000000000000   1.0000000
B2   B   0.278281787412237   0.722526250557306   0.375000000000000   1.0000000
B2   B   0.106670223655308   0.220001778494318   0.375000000000000   1.0000000
B2   B   0.443621110771081   0.219441284940422   0.375000000000000   1.0000000
B2   B   0.611860391258953   0.722288867799284   0.375000000000000   1.0000000
B2   B   0.946913189410223   0.723937063784918   0.375000000000000   1.0000000
B2   B   0.777311910650676   0.221762564474077   0.375000000000000   1.0000000
B2   B   0.111099924666009   0.888881520617200   0.875000000000000   1.0000000
B2   B   0.444459827155193   0.888896580244261   0.875000000000000   1.0000000
B2   B   0.277707342996142   0.388872052754564   0.875000000000000   1.0000000
B2   B   0.611155180028976   0.388871841960897   0.875000000000000   1.0000000
B2   B   0.777802894963499   0.888942242589491   0.875000000000000   1.0000000
B2   B   0.944450198803481   0.388868428495513   0.875000000000000   1.0000000
B2   B   0.108379761006139   0.387794668314082   0.375000000000000   1.0000000
B2   B   0.278281787412237   0.889088870188260   0.375000000000000   1.0000000
B2   B   0.610941483215635   0.888591048205924   0.375000000000000   1.0000000
B2   B   0.944590304694919   0.889479169418912   0.375000000000000   1.0000000
B2   B   0.781154356507661   0.388970123949240   0.375000000000000   1.0000000
B2   B   0.277746485753308   0.555570701781469   0.875000000000000   1.0000000
B2   B   0.111061089202525   0.055526163169001   0.875000000000000   1.0000000
B2   B   0.611155180028976   0.555616671401408   0.875000000000000   1.0000000
B2   B   0.444455699881105   0.055515753232155   0.875000000000000   1.0000000
B2   B   0.944473092935711   0.555556249271776   0.875000000000000   1.0000000
B2   B   0.111476654642151   0.555571724264921   0.375000000000000   1.0000000
B2   B   0.777789800990817   0.055561567162076   0.875000000000000   1.0000000
B2   B   0.276607321869988   0.054585031039259   0.375000000000000   1.0000000
B2   B   0.443621110771081   0.557513159163995   0.375000000000000   1.0000000
B2   B   0.783725676463098   0.558529504898217   0.375000000000000   1.0000000
B2   B   0.610941483215635   0.055683768343040   0.375000000000000   1.0000000
B2   B   0.444438400233583   0.555605131397113   0.875000000000000   1.0000000
B2   B   0.942395960684838   0.054552671697330   0.375000000000000   1.0000000
B2   B   0.277777001063517   0.722234910057723   0.875000000000000   1.0000000
B2   B   0.111036642687451   0.222184988010390   0.875000000000000   1.0000000
B2   B   0.444438400233583   0.222166602169805   0.875000000000000   1.0000000
B2   B   0.611147572272932   0.722305000541945   0.875000000000000   1.0000000
B2   B   0.944473092935711   0.722250176997271   0.875000000000000   1.0000000
B2   B   0.777802894963499   0.222193985707336   0.875000000000000   1.0000000
B2   B   0.112400980203825   0.722867156768577   0.375000000000000   1.0000000
B2   B   0.444609407070477   0.722811270070145   0.375000000000000   1.0000000
B2   B   0.269659147281744   0.217494425102151   0.375000000000000   1.0000000
B2   B   0.781154356507661   0.725517565891752   0.375000000000000   1.0000000
B2   B   0.611860391258953   0.222904856792998   0.375000000000000   1.0000000
B2   B   0.942395960684838   0.221176622320845   0.375000000000000   1.0000000
B2   B   0.111061089202525   0.388868259366853   0.875000000000000   1.0000000
B2   B   0.277777001063517   0.888875424339122   0.875000000000000   1.0000000
B2   B   0.611139100763517   0.888932314660559   0.875000000000000   1.0000000
B2   B   0.444421036643824   0.388877184988577   0.875000000000000   1.0000000
B2   B   0.944450198803481   0.888915103641298   0.875000000000000   1.0000000
B2   B   0.111476654642151   0.889238263710559   0.375000000000000   1.0000000
B2   B   0.777825053386977   0.388867055280947   0.875000000000000   1.0000000
B2   B   0.444760605578001   0.889046969455665   0.375000000000000   1.0000000
B2   B   0.269659147281744   0.385498055512921   0.375000000000000   1.0000000
B2   B   0.276607321869988   0.555355624164065   0.375000000000000   1.0000000
B2   B   0.621621363072548   0.389608379452585   0.375000000000000   1.0000000
B2   B   0.777311910650676   0.888882679509926   0.375000000000000   1.0000000
B2   B   0.944590304694919   0.388444468609333   0.375000000000000   1.0000000
B2   B   0.111099924666009   0.555551737382135   0.875000000000000   1.0000000
B2   B   0.277746485753308   0.055509117305175   0.875000000000000   1.0000000
B2   B   0.777833511447787   0.555583422390561   0.875000000000000   1.0000000
B2   B   0.611139100763517   0.055540119436286   0.875000000000000   1.0000000
B2   B   0.944420070145987   0.055552696926489   0.875000000000000   1.0000000
B2   B   0.055425383036420   0.111000100162441   0.124731682257962   1.0000000
B2   B   0.555592025553093   0.611309454975773   0.125039916540771   1.0000000
B2   B   0.388751754680901   0.110821000616714   0.124862335691164   1.0000000
B2   B   0.889137575232611   0.611235454282976   0.124768203304521   1.0000000
B2   B   0.722209309297106   0.111066413277533   0.124747912086422   1.0000000
B2   B   0.055638086941043   0.777789062536197   0.625245299055114   1.0000000
B2   B   0.388799852227310   0.777821418485364   0.625231500858247   1.0000000
B2   B   0.221967107863482   0.277650220598409   0.625286929314855   1.0000000
B2   B   0.722320957657060   0.777919986786947   0.625212126411730   1.0000000
B2   B   0.555592025553093   0.277615903910656   0.624960083459230   1.0000000
B2   B   0.888903105270273   0.277780922252048   0.625277207405217   1.0000000
B2   B   0.222190276273250   0.777761804803292   0.124772637296915   1.0000000
B2   B   0.055425383036420   0.277758616207314   0.124731682257962   1.0000000
B2   B   0.388685049608259   0.277513137798624   0.124598407059215   1.0000000
B2   B   0.555516275500402   0.777896406919507   0.124786869710724   1.0000000
B2   B   0.889048421751188   0.777871317082900   0.124733263817981   1.0000000
B2   B   0.722320957657060   0.277734304203447   0.124787873588270   1.0000000
B2   B   0.055525811222112   0.944357942456385   0.625261518207841   1.0000000
B2   B   0.388799852227310   0.944311767075282   0.625231500858247   1.0000000
B2   B   0.222024522516114   0.444506633717508   0.625203997209706   1.0000000
B2   B   0.555671866119886   0.444502599726607   0.624769102414319   1.0000000
B2   B   0.722209309297106   0.944476229352909   0.625252087913578   1.0000000
B2   B   0.889048421751188   0.444510438001625   0.625266736182019   1.0000000
B2   B   0.055525811222112   0.444501202099056   0.124738481792160   1.0000000
B2   B   0.222138719895471   0.944275634166624   0.124789739957571   1.0000000
B2   B   0.555496201014241   0.944414767173785   0.124741315889921   1.0000000
B2   B   0.388685049608259   0.444505245142972   0.124598407059215   1.0000000
B2   B   0.888903105270273   0.944455516351562   0.124722792594782   1.0000000
B2   B   0.722485829731375   0.444528543631660   0.125044102384230   1.0000000
B2   B   0.222138719895471   0.611196419062183   0.625210260042428   1.0000000
B2   B   0.055425383036420   0.111000100162441   0.625268317742038   1.0000000
B2   B   0.555592025553093   0.611309454975773   0.624960083459230   1.0000000
B2   B   0.388751754680901   0.110821000616714   0.625137664308835   1.0000000
B2   B   0.889137575232611   0.611235454282976   0.625231796695479   1.0000000
B2   B   0.055638086941043   0.611182357738181   0.124754700944886   1.0000000
B2   B   0.722209309297106   0.111066413277533   0.625252087913578   1.0000000
B2   B   0.222024522516114   0.110851222131943   0.124796002790294   1.0000000
B2   B   0.388751754680901   0.611264087397529   0.124862335691164   1.0000000
B2   B   0.722485829731375   0.611290619433051   0.125044102384230   1.0000000
B2   B   0.555516275500402   0.110953201914231   0.124786869710724   1.0000000
B2   B   0.388751754680901   0.611264087397529   0.625137664308835   1.0000000
B2   B   0.888841610066562   0.111087471699953   0.124750519737783   1.0000000
B2   B   0.222190276273250   0.777761804803292   0.625227362703085   1.0000000
B2   B   0.055425383036420   0.277758616207314   0.625268317742038   1.0000000
B2   B   0.388685049608259   0.277513137798624   0.625401592940787   1.0000000
B2   B   0.555516275500402   0.777896406919507   0.625213130289276   1.0000000
B2   B   0.889048421751188   0.777871317082900   0.625266736182019   1.0000000
B2   B   0.722320957657060   0.277734304203447   0.625212126411730   1.0000000
B2   B   0.055638086941043   0.777789062536197   0.124754700944886   1.0000000
B2   B   0.388799852227310   0.777821418485364   0.124768499141752   1.0000000
B2   B   0.221967107863482   0.277650220598409   0.124713070685146   1.0000000
B2   B   0.722320957657060   0.777919986786947   0.124787873588270   1.0000000
B2   B   0.555592025553093   0.277615903910656   0.125039916540771   1.0000000
B2   B   0.888903105270273   0.277780922252048   0.124722792594782   1.0000000
B2   B   0.055525811222112   0.444501202099056   0.625261518207841   1.0000000
B2   B   0.222138719895471   0.944275634166624   0.625210260042428   1.0000000
B2   B   0.555496201014241   0.944414767173785   0.625258684110078   1.0000000
B2   B   0.388685049608259   0.444505245142972   0.625401592940787   1.0000000
B2   B   0.888903105270273   0.944455516351562   0.625277207405217   1.0000000
B2   B   0.055525811222112   0.944357942456385   0.124738481792160   1.0000000
B2   B   0.722485829731375   0.444528543631660   0.624955897615770   1.0000000
B2   B   0.388799852227310   0.944311767075282   0.124768499141752   1.0000000
B2   B   0.222024522516114   0.444506633717508   0.124796002790294   1.0000000
B2   B   0.222138719895471   0.611196419062183   0.124789739957571   1.0000000
B2   B   0.555671866119886   0.444502599726607   0.125230897585682   1.0000000
B2   B   0.722209309297106   0.944476229352909   0.124747912086422   1.0000000
B2   B   0.889048421751188   0.444510438001625   0.124733263817981   1.0000000
B2   B   0.055638086941043   0.611182357738181   0.625245299055114   1.0000000
B2   B   0.222024522516114   0.110851222131943   0.625203997209706   1.0000000
B2   B   0.722485829731375   0.611290619433051   0.624955897615770   1.0000000
B2   B   0.555516275500402   0.110953201914231   0.625213130289276   1.0000000
B2   B   0.888841610066562   0.111087471699953   0.625249480262217   1.0000000


