data_1
_audit_creation_method   'vasp2cif'
_cell_length_a    17.52789999999977
_cell_length_b    17.52789999999977
_cell_length_c    15.0
_cell_angle_alpha    90.0
_cell_angle_beta    90.0
_cell_angle_gamma    119.99999999999916

_symmetry_space_group_name_H-M    'P 1'
loop_
_atom_site_label
_atom_site_type_symbol
_atom_site_fract_x
_atom_site_fract_y
_atom_site_fract_z
_atom_site_occupancy
Si2   Si   0.442191389896112   0.506810897572057   0.111298247939817   1.0000000
B2   B   0.904680071863504   0.952382662799550   0.110994148667472   1.0000000
B2   B   0.906242870598706   0.096227779797975   0.111034254296775   1.0000000
B2   B   0.906721826480559   0.239075260085782   0.111083405341309   1.0000000
B2   B   0.906242870598706   0.381443784491729   0.111034254296775   1.0000000
B2   B   0.904680071863504   0.523727814311958   0.110994148667472   1.0000000
B2   B   0.903326962128727   0.666058742729769   0.111036650949472   1.0000000
B2   B   0.903326962128727   0.808698624646960   0.111036650949472   1.0000000
B2   B   0.046895759075252   0.951760389636435   0.111001129777060   1.0000000
B2   B   0.048488616710219   0.095654953120503   0.111010366063603   1.0000000
B2   B   0.050098096025717   0.239486697422325   0.111023050836996   1.0000000
B2   B   0.050098096025717   0.382041803850393   0.111023050836996   1.0000000
B2   B   0.048488616710219   0.524264068837709   0.111010366063603   1.0000000
B2   B   0.046895759075252   0.666567486242813   0.111001129777060   1.0000000
B2   B   0.046572505090392   0.809002310947198   0.110977255802768   1.0000000
B2   B   0.189774183802060   0.951658473938990   0.110991761864047   1.0000000
B2   B   0.190117643326966   0.094085318722032   0.111047198029063   1.0000000
B2   B   0.192563509146640   0.238624517318493   0.111022141470209   1.0000000
B2   B   0.194572429372874   0.383001417309937   0.111027523788786   1.0000000
B2   B   0.192563509146640   0.525369397076149   0.111022141470209   1.0000000
B2   B   0.190117643326966   0.667462729852929   0.111047198029063   1.0000000
B2   B   0.189774183802060   0.809547826667074   0.110991761864047   1.0000000
B2   B   0.333057879273915   0.952244998038459   0.111015672247282   1.0000000
B2   B   0.333133232156481   0.093411352179323   0.111057136088247   1.0000000
B2   B   0.333151255195140   0.234033585142467   0.111050177024028   1.0000000
B2   B   0.336992055849786   0.376839965933287   0.111059828183301   1.0000000
B2   B   0.336992055849786   0.531582495163499   0.111059828183301   1.0000000
B2   B   0.333151255195140   0.670548075299672   0.111050177024028   1.0000000
B2   B   0.333133232156481   0.811152285224158   0.111057136088247   1.0000000
B2   B   0.476658916883191   0.953418188038920   0.111008768764688   1.0000000
B2   B   0.476658916883191   0.094671134091271   0.111008768764688   1.0000000
B2   B   0.476706569197770   0.235816980105752   0.111041271641278   1.0000000
B2   B   0.476880117523214   0.376473321765826   0.111001028572525   1.0000000
B2   B   0.476880117523214   0.671837201004388   0.111001028572525   1.0000000
B2   B   0.476706569197770   0.812319994339026   0.111041271641278   1.0000000
B2   B   0.620119394584857   0.953690297883706   0.111013033114444   1.0000000
B2   B   0.620136177667698   0.095782435679344   0.110988632288388   1.0000000
B2   B   0.620119394584857   0.237859501948149   0.111013033114444   1.0000000
B2   B   0.619647868718818   0.379972633330139   0.111013719883944   1.0000000
B2   B   0.615366663391354   0.521539093204839   0.111058660105190   1.0000000
B2   B   0.615366663391354   0.665257975434510   0.111058660105190   1.0000000
B2   B   0.619647868718818   0.811105640635679   0.111013719883944   1.0000000
B2   B   0.762807613005227   0.953261983076697   0.111000685932382   1.0000000
B2   B   0.763364062099612   0.096181280436007   0.111034461068196   1.0000000
B2   B   0.763364062099612   0.238611475354603   0.111034461068196   1.0000000
B2   B   0.762807613005227   0.380976035175531   0.111000685932382   1.0000000
B2   B   0.760654620402200   0.523135407619955   0.111045147980536   1.0000000
B2   B   0.759092139082102   0.665261272165048   0.111080345385245   1.0000000
B2   B   0.760654620402200   0.808949618030246   0.111045147980536   1.0000000
N2   N   0.951618267257341   0.904175468608437   0.110990826744442   1.0000000
N2   N   0.953152896176665   0.047999350748038   0.110982493883330   1.0000000
N2   N   0.954594638736564   0.191689694211034   0.111036695606687   1.0000000
N2   N   0.954594638736564   0.334331926643529   0.111036695606687   1.0000000
N2   N   0.953152896176665   0.476580527546625   0.110982493883330   1.0000000
N2   N   0.951618267257341   0.618871492323899   0.110990826744442   1.0000000
N2   N   0.951186503754245   0.761307598714624   0.111003047791142   1.0000000
N2   N   0.094471689775985   0.904195449982724   0.110960729270952   1.0000000
N2   N   0.095045988133633   0.047076164440076   0.111005510212406   1.0000000
N2   N   0.097199778328561   0.191361254170761   0.110994152390197   1.0000000
N2   N   0.098753908183578   0.335091300928790   0.110998689390074   1.0000000
N2   N   0.097199778328561   0.477267217831801   0.110994152390197   1.0000000
N2   N   0.095045988133633   0.619398517368560   0.111005510212406   1.0000000
N2   N   0.094471689775985   0.761706645024267   0.110960729270952   1.0000000
N2   N   0.237673853505402   0.904552129368200   0.110973882236811   1.0000000
N2   N   0.237786272142833   0.046634047839600   0.111023823812848   1.0000000
N2   N   0.238312054094153   0.189157297900071   0.111035813085686   1.0000000
N2   N   0.242237991633352   0.335022076617495   0.111016145060403   1.0000000
N2   N   0.242237991633352   0.478644608689850   0.111016145060403   1.0000000
N2   N   0.238312054094153   0.620583449869077   0.111035813085686   1.0000000
N2   N   0.237786272142833   0.762580917978236   0.111023823812848   1.0000000
N2   N   0.381242241108929   0.905776085775269   0.111008153787026   1.0000000
N2   N   0.381242241108929   0.046894849008663   0.111008153787026   1.0000000
N2   N   0.381363810697336   0.187854495100760   0.111050812802762   1.0000000
N2   N   0.381744363739195   0.328041477244857   0.110985897889564   1.0000000
N2   N   0.381744363739195   0.625131580169333   0.110985897889564   1.0000000
N2   N   0.381363810697336   0.764938009271580   0.111050812802762   1.0000000
N2   N   0.524810071302061   0.906823474739389   0.111015636054996   1.0000000
N2   N   0.524792148354451   0.048109565236729   0.110965939960573   1.0000000
N2   N   0.524810071302061   0.189415290237675   0.111015636054996   1.0000000
N2   N   0.524783542295827   0.330428953074710   0.110993720797605   1.0000000
N2   N   0.519866213856522   0.470455024621108   0.111019909547895   1.0000000
N2   N   0.519866213856522   0.620839882910410   0.111019909547895   1.0000000
N2   N   0.524783542295827   0.765783282896121   0.110993720797605   1.0000000
N2   N   0.667723039250179   0.906161583562748   0.110994507886359   1.0000000
N2   N   0.668067132043694   0.048674165599130   0.110991514653723   1.0000000
N2   N   0.668067132043694   0.190819948563572   0.110991514653723   1.0000000
N2   N   0.667723039250179   0.332990149362434   0.110994507886359   1.0000000
N2   N   0.665172398537163   0.475180058109807   0.111013090124550   1.0000000
N2   N   0.663170035280766   0.617299364478382   0.111060970669854   1.0000000
N2   N   0.665172398537163   0.761421034102358   0.111013090124550   1.0000000
N2   N   0.809339964230467   0.904655768633786   0.110988465595808   1.0000000
N2   N   0.810942752007633   0.048595446384253   0.111008728301800   1.0000000
N2   N   0.811335742107807   0.191381362112906   0.111046913029658   1.0000000
N2   N   0.810942752007633   0.333774287741385   0.111008728301800   1.0000000
N2   N   0.809339964230467   0.476112889270683   0.110988465595808   1.0000000
N2   N   0.807791921183023   0.618357271973682   0.111050566080648   1.0000000
N2   N   0.807791921183023   0.760863342884343   0.111050566080648   1.0000000


