data_1
_audit_creation_method   'vasp2cif'
_cell_length_a    17.52789999999977
_cell_length_b    17.52789999999977
_cell_length_c    15.0
_cell_angle_alpha    90.0
_cell_angle_beta    90.0
_cell_angle_gamma    119.99999999999916

_symmetry_space_group_name_H-M    'P 1'
loop_
_atom_site_label
_atom_site_type_symbol
_atom_site_fract_x
_atom_site_fract_y
_atom_site_fract_z
_atom_site_occupancy
S2   S   0.389769235733900   0.484358757145473   0.111157284581749   1.0000000
B2   B   0.907015300231825   0.951704398067997   0.110742306046309   1.0000000
B2   B   0.908473518335865   0.095096750541248   0.110772615376658   1.0000000
B2   B   0.908807147223101   0.237913632267461   0.110726938481819   1.0000000
B2   B   0.908297046029053   0.380686529916991   0.110679003103737   1.0000000
B2   B   0.905710019898403   0.523135781303797   0.110731382531358   1.0000000
B2   B   0.903260563428631   0.664937894810832   0.110753016806462   1.0000000
B2   B   0.903440417548509   0.806792912100833   0.110702692990594   1.0000000
B2   B   0.049099877587602   0.952076787852420   0.110691481933085   1.0000000
B2   B   0.050845526686966   0.095090229197891   0.110747264647300   1.0000000
B2   B   0.051650866401823   0.238327381705018   0.110769722601534   1.0000000
B2   B   0.050732237973265   0.381529557103074   0.110702547237621   1.0000000
B2   B   0.048066034217372   0.524670181197320   0.110691090079458   1.0000000
B2   B   0.047236008678211   0.667053424577932   0.110738861569928   1.0000000
B2   B   0.047508682634498   0.809258737475463   0.110699500578180   1.0000000
B2   B   0.192047719563872   0.953124298723234   0.110682571569837   1.0000000
B2   B   0.194681180791526   0.096616823602902   0.110696123519135   1.0000000
B2   B   0.194235602414743   0.237457803496979   0.110741425505411   1.0000000
B2   B   0.194059632053790   0.382041953729703   0.110772847612059   1.0000000
B2   B   0.189128228823648   0.526406889040810   0.110710625727449   1.0000000
B2   B   0.190076438660595   0.668956001682382   0.110778979847279   1.0000000
B2   B   0.190793088064292   0.810867915263603   0.110723091779472   1.0000000
B2   B   0.335148398536526   0.953867263485013   0.110716782077544   1.0000000
B2   B   0.336847632286068   0.095792532220188   0.110700567623231   1.0000000
B2   B   0.342289408910693   0.240150146772928   0.110734529492073   1.0000000
B2   B   0.336445440796398   0.368399706630701   0.110874790306004   1.0000000
B2   B   0.327868679080556   0.535681095658849   0.110770962337114   1.0000000
B2   B   0.332813564679055   0.673309937100748   0.110786228997451   1.0000000
B2   B   0.334079440284704   0.812934239970415   0.110805182140842   1.0000000
B2   B   0.478635787539111   0.954022547919135   0.110775522218070   1.0000000
B2   B   0.479692058708071   0.095406357141516   0.110750394418129   1.0000000
B2   B   0.482105889443711   0.238120976702522   0.110715348200985   1.0000000
B2   B   0.501211210484072   0.394628803309580   0.110685841348022   1.0000000
B2   B   0.476840338924979   0.673674728057219   0.110629393353507   1.0000000
B2   B   0.478057436940042   0.813375088069691   0.110737237288265   1.0000000
B2   B   0.622234972903158   0.953073310519450   0.110724266781840   1.0000000
B2   B   0.622768964361135   0.094725329003045   0.110730477537238   1.0000000
B2   B   0.623643315700633   0.236135706500923   0.110722326894212   1.0000000
B2   B   0.625300569127822   0.376844281703067   0.110734702580053   1.0000000
B2   B   0.603275197685321   0.500438796195836   0.110688544771918   1.0000000
B2   B   0.622795508825790   0.666878875027756   0.110690035054384   1.0000000
B2   B   0.621954000610975   0.810783135416724   0.110696124774115   1.0000000
B2   B   0.765124585183813   0.952274543063476   0.110760494676448   1.0000000
B2   B   0.765799891251767   0.094947717182832   0.110734985003412   1.0000000
B2   B   0.766214538671340   0.237247864438402   0.110697639950311   1.0000000
B2   B   0.766334260532240   0.379485655126192   0.110696611949004   1.0000000
B2   B   0.761769628536978   0.520598078974861   0.110759092042439   1.0000000
B2   B   0.755747165397482   0.659306365645450   0.110712620916825   1.0000000
B2   B   0.763645965179070   0.808518063071689   0.110677269004557   1.0000000
N2   N   0.953271018060314   0.903260936276697   0.110692673594969   1.0000000
N2   N   0.955625865851255   0.047316014641805   0.110750380957442   1.0000000
N2   N   0.956691094752361   0.190602394927010   0.110744817701249   1.0000000
N2   N   0.956332641316957   0.333258483523344   0.110685347749886   1.0000000
N2   N   0.954037386986790   0.475982618717231   0.110678499281888   1.0000000
N2   N   0.952418258139120   0.618536489436309   0.110739954028526   1.0000000
N2   N   0.952068943985333   0.760609319001818   0.110705124523311   1.0000000
N2   N   0.096509659657884   0.904766502120945   0.110672000016007   1.0000000
N2   N   0.098598137896654   0.048113021181068   0.110685872204771   1.0000000
N2   N   0.099231393800611   0.190734240496258   0.110736904468549   1.0000000
N2   N   0.099512619781649   0.334265706435516   0.110734622580663   1.0000000
N2   N   0.095730809921494   0.477058170225183   0.110664845782478   1.0000000
N2   N   0.095424085971799   0.619970195774487   0.110715881202621   1.0000000
N2   N   0.095576195797699   0.762344569259823   0.110702925582143   1.0000000
N2   N   0.239599026362216   0.905828184079636   0.110680836998533   1.0000000
N2   N   0.241121603270910   0.048378785660824   0.110663614069844   1.0000000
N2   N   0.244510471982341   0.192828719973689   0.110715063136176   1.0000000
N2   N   0.242422186827302   0.333615037684744   0.110768248165866   1.0000000
N2   N   0.236609682495922   0.478622068064087   0.110716789924505   1.0000000
N2   N   0.237998651872222   0.621848001974086   0.110755371511363   1.0000000
N2   N   0.238766258107820   0.763896121821177   0.110773666704616   1.0000000
N2   N   0.383053164758326   0.907010856361239   0.110758848739497   1.0000000
N2   N   0.384011145287885   0.048197300010801   0.110699254215992   1.0000000
N2   N   0.386084120428186   0.190223185761263   0.110708094885738   1.0000000
N2   N   0.394416711890202   0.336659215388967   0.110752326444751   1.0000000
N2   N   0.381316799748781   0.627572885491409   0.110733146347585   1.0000000
N2   N   0.382385884035648   0.766689904759567   0.110775450319321   1.0000000
N2   N   0.526687751629943   0.907064756458010   0.110741580794039   1.0000000
N2   N   0.527338262115532   0.048049764522585   0.110744653112864   1.0000000
N2   N   0.528485877114164   0.189364466585676   0.110725878903032   1.0000000
N2   N   0.531532817881314   0.331111468756668   0.110707542604271   1.0000000
N2   N   0.492579155398944   0.542247243892003   0.111508430112645   1.0000000
N2   N   0.526526880782880   0.628703885457105   0.110664252763302   1.0000000
N2   N   0.526087728472406   0.766416863125659   0.110635450595130   1.0000000
N2   N   0.669707175776054   0.905309084169416   0.110725865457615   1.0000000
N2   N   0.670535726360100   0.047472921620317   0.110704917136982   1.0000000
N2   N   0.671276155025456   0.188973568551179   0.110699097791010   1.0000000
N2   N   0.672528348527915   0.330066121862541   0.110691027716094   1.0000000
N2   N   0.668403807780434   0.470824278006721   0.110738157567088   1.0000000
N2   N   0.658301857540463   0.608898320919315   0.110704207386704   1.0000000
N2   N   0.668580023933622   0.762042466715922   0.110660935760463   1.0000000
N2   N   0.811851325498640   0.904076143739588   0.110719541410096   1.0000000
N2   N   0.813281302364137   0.047402430523367   0.110754643455950   1.0000000
N2   N   0.813950141331700   0.189909622282514   0.110705798759874   1.0000000
N2   N   0.814091737992270   0.332190565561537   0.110661800722828   1.0000000
N2   N   0.811626950167183   0.474536690247248   0.110714156201274   1.0000000
N2   N   0.808091520507189   0.616247738494256   0.110735484633969   1.0000000
N2   N   0.807284393160026   0.757578882857798   0.110674800320059   1.0000000


