data_1
_audit_creation_method   'vasp2cif'
_cell_length_a    17.52789999999977
_cell_length_b    17.52789999999977
_cell_length_c    15.0
_cell_angle_alpha    90.0
_cell_angle_beta    90.0
_cell_angle_gamma    119.99999999999916

_symmetry_space_group_name_H-M    'P 1'
loop_
_atom_site_label
_atom_site_type_symbol
_atom_site_fract_x
_atom_site_fract_y
_atom_site_fract_z
_atom_site_occupancy
B2   B   0.905097223953209   0.952721557463076   0.111020285679598   1.0000000
B2   B   0.904695911456192   0.095262302907200   0.111049226389327   1.0000000
B2   B   0.904666338084022   0.238057624854828   0.111057555693158   1.0000000
B2   B   0.904691339836174   0.380871302150509   0.111004296201089   1.0000000
B2   B   0.905095160845213   0.523799953643261   0.111010055811494   1.0000000
B2   B   0.905877317417059   0.666986681559700   0.111085630161653   1.0000000
B2   B   0.905880218848467   0.810329136097997   0.111063258811912   1.0000000
B2   B   0.047853327959031   0.952560927403993   0.111014480657842   1.0000000
B2   B   0.047626903183800   0.095344176682057   0.111018639071898   1.0000000
B2   B   0.047507388984628   0.238094769896797   0.111005503522177   1.0000000
B2   B   0.047496807271513   0.380833400824972   0.111024616973964   1.0000000
B2   B   0.047633754715214   0.523709935393569   0.111016878318098   1.0000000
B2   B   0.047871025144447   0.666734795146721   0.111032967869076   1.0000000
B2   B   0.048044352370696   0.809743354137784   0.111013209165525   1.0000000
B2   B   0.190474844323444   0.952293509557330   0.111007095512209   1.0000000
B2   B   0.190004410337455   0.094737685460432   0.111073259499416   1.0000000
B2   B   0.190336996095084   0.238088954922658   0.111019418328546   1.0000000
B2   B   0.190366667928477   0.380880873280060   0.111028296561194   1.0000000
B2   B   0.190335070497675   0.523659210100367   0.111087409191226   1.0000000
B2   B   0.190017207373061   0.666695625058361   0.111076731329979   1.0000000
B2   B   0.190486932759389   0.809602094157319   0.111004015196732   1.0000000
B2   B   0.333274816844386   0.952338691875510   0.111024895547890   1.0000000
B2   B   0.333112730621410   0.094794179391034   0.111083227233836   1.0000000
B2   B   0.331986254686925   0.236476376080364   0.111078658730373   1.0000000
B2   B   0.333411271028425   0.380653142490830   0.111075178791551   1.0000000
B2   B   0.333412360695350   0.524151651342867   0.111092352687594   1.0000000
B2   B   0.331984105271851   0.666921015700617   0.111093148976931   1.0000000
B2   B   0.333123725993299   0.809742955737048   0.111063307952609   1.0000000
B2   B   0.476154725254678   0.952545508676857   0.111017259199531   1.0000000
B2   B   0.476155786659232   0.095031133090429   0.111014802870058   1.0000000
B2   B   0.475942744554418   0.237343632345425   0.111060310750384   1.0000000
B2   B   0.473494774723160   0.377564242649840   0.110987749172169   1.0000000
B2   B   0.473505089579663   0.667373884083317   0.110935053884527   1.0000000
B2   B   0.475949526136350   0.810032487415809   0.111060776167778   1.0000000
B2   B   0.618993332596777   0.952269351179707   0.111034773939308   1.0000000
B2   B   0.619056909810582   0.095252800992572   0.111006707503768   1.0000000
B2   B   0.618994877277581   0.238169889447251   0.111026217215998   1.0000000
B2   B   0.618735824370114   0.381242831865402   0.111013160896869   1.0000000
B2   B   0.622178800404105   0.526768108905074   0.110942692744541   1.0000000
B2   B   0.622194590376984   0.666857264412601   0.110932134935433   1.0000000
B2   B   0.618746395939320   0.808929023338960   0.111004496042644   1.0000000
B2   B   0.761849300887679   0.952295990922014   0.111024764444987   1.0000000
B2   B   0.761843749327475   0.095202837536414   0.111060954396236   1.0000000
B2   B   0.761841970098957   0.238096936151691   0.111065468822492   1.0000000
B2   B   0.761841097903250   0.380980728740681   0.111024839403004   1.0000000
B2   B   0.762724510337328   0.524110036561517   0.111056110987833   1.0000000
B2   B   0.764973665761074   0.668210204126380   0.111047379026453   1.0000000
B2   B   0.762725881768082   0.810060674069133   0.111039871834055   1.0000000
C2   C   0.474423301011680   0.522933203096435   0.110954700559075   1.0000000
C2   C   0.521314028792234   0.477295357237149   0.110876852916217   1.0000000
C2   C   0.521330333727412   0.615481005224936   0.110735253734665   1.0000000
N2   N   0.953001663303495   0.905378335033231   0.111003227898734   1.0000000
N2   N   0.952504018772111   0.047884307056669   0.111003052997608   1.0000000
N2   N   0.952268895541681   0.190474216729400   0.111021171611293   1.0000000
N2   N   0.952264502246722   0.333234639501630   0.111001859710113   1.0000000
N2   N   0.952507666877314   0.476054091802480   0.110957765323624   1.0000000
N2   N   0.953007444178006   0.619058296363448   0.111018336416373   1.0000000
N2   N   0.953203852636923   0.762320573731179   0.111045850048253   1.0000000
N2   N   0.095441287029288   0.904890933019238   0.110970482504831   1.0000000
N2   N   0.095051069637981   0.047544819865862   0.111015241825660   1.0000000
N2   N   0.095098683632213   0.190517226932250   0.110973584686272   1.0000000
N2   N   0.095042354075666   0.333232746010400   0.110980087494264   1.0000000
N2   N   0.095098463071143   0.476003172402279   0.111017925943833   1.0000000
N2   N   0.095061807800970   0.618938091873285   0.111020446499940   1.0000000
N2   N   0.095449409173310   0.761988799136452   0.110986340362317   1.0000000
N2   N   0.238081800786967   0.904748358918994   0.110977281879383   1.0000000
N2   N   0.237875764634706   0.047324459461266   0.111042006947643   1.0000000
N2   N   0.237067693455794   0.189545344262370   0.111044638283163   1.0000000
N2   N   0.237933963555410   0.333348132144442   0.111018546611686   1.0000000
N2   N   0.237932706437076   0.475988456537634   0.111063468100343   1.0000000
N2   N   0.237067858503002   0.618937171662575   0.111080482713000   1.0000000
N2   N   0.237887427707573   0.761974043114615   0.111026130425945   1.0000000
N2   N   0.380890321969991   0.904911441920179   0.111012449595558   1.0000000
N2   N   0.380886734614808   0.047390407397767   0.111022075353658   1.0000000
N2   N   0.380474099015937   0.189650269505588   0.111070771444890   1.0000000
N2   N   0.378846104865115   0.330935781412752   0.111040546810954   1.0000000
N2   N   0.381335964360523   0.476371183656672   0.111059705733681   1.0000000
N2   N   0.378848531191060   0.619320155728221   0.111040793185570   1.0000000
N2   N   0.380480174485952   0.762241692980874   0.111064354037219   1.0000000
N2   N   0.523753824479510   0.905196745499776   0.111023533992902   1.0000000
N2   N   0.523842472853939   0.047634392992838   0.110965974364538   1.0000000
N2   N   0.523752509400632   0.189986405077529   0.111016652640816   1.0000000
N2   N   0.523164024273240   0.331959979618105   0.111007108566482   1.0000000
N2   N   0.523173322945875   0.762643282553716   0.110994199211824   1.0000000
N2   N   0.666562970923592   0.904557036952388   0.111006162196488   1.0000000
N2   N   0.666664328604913   0.047611123309121   0.111008633191492   1.0000000
N2   N   0.666664268757158   0.190501809070304   0.111015533620478   1.0000000
N2   N   0.666558207415827   0.333441918840481   0.111005929407574   1.0000000
N2   N   0.667719337338531   0.476830668951428   0.111000408416536   1.0000000
N2   N   0.671365982681817   0.621401472559062   0.110979041175404   1.0000000
N2   N   0.667727656330209   0.762330340211762   0.111001161627523   1.0000000
N2   N   0.810047866636094   0.905302171612403   0.111006534760633   1.0000000
N2   N   0.809469974847566   0.047633823026327   0.111023790129026   1.0000000
N2   N   0.809455287526068   0.190455273929239   0.111045749035090   1.0000000
N2   N   0.809469527709387   0.333281301694365   0.111012883446671   1.0000000
N2   N   0.810043039407182   0.476180517986379   0.111014353629047   1.0000000
N2   N   0.811351238081020   0.619489518785056   0.111064351599424   1.0000000
N2   N   0.811352080700638   0.763305920076142   0.111043443219269   1.0000000


