data_1
_audit_creation_method   'vasp2cif'
_cell_length_a    17.52789999999977
_cell_length_b    17.52789999999977
_cell_length_c    15.0
_cell_angle_alpha    90.0
_cell_angle_beta    90.0
_cell_angle_gamma    119.99999999999916

_symmetry_space_group_name_H-M    'P 1'
loop_
_atom_site_label
_atom_site_type_symbol
_atom_site_fract_x
_atom_site_fract_y
_atom_site_fract_z
_atom_site_occupancy
B2   B   0.905211581446618   0.953140383927141   0.111082450214478   1.0000000
B2   B   0.904932999710589   0.095274980355273   0.111024509749537   1.0000000
B2   B   0.905180384070509   0.237716252043917   0.110967556339010   1.0000000
B2   B   0.906059935713087   0.380542868778320   0.110963114413715   1.0000000
B2   B   0.908690196210792   0.524024980793340   0.111140553725367   1.0000000
B2   B   0.908878404878600   0.670524491592961   0.111102024402458   1.0000000
B2   B   0.906055981070372   0.811180870870328   0.111139740431183   1.0000000
B2   B   0.048002790310427   0.952877989162012   0.110993377152190   1.0000000
B2   B   0.047426949871151   0.095196398019491   0.110984972160891   1.0000000
B2   B   0.047422977269433   0.237874034245874   0.110973820635843   1.0000000
B2   B   0.047979036562246   0.380861729264479   0.110980732049793   1.0000000
B2   B   0.049271773549793   0.524083232593920   0.110909372524090   1.0000000
B2   B   0.048982177687800   0.667389808954799   0.110955516974356   1.0000000
B2   B   0.049390497644717   0.811059200140279   0.110984483511341   1.0000000
B2   B   0.190624171171741   0.952385639348951   0.110915326109036   1.0000000
B2   B   0.189765159203874   0.094718925639394   0.111038884711972   1.0000000
B2   B   0.189290439930465   0.237449210345733   0.111036005567769   1.0000000
B2   B   0.189643003678884   0.380708325944389   0.111080115637757   1.0000000
B2   B   0.190530140021880   0.524060408712859   0.111191293211894   1.0000000
B2   B   0.190942677444092   0.667059787626375   0.111091355517596   1.0000000
B2   B   0.191001152526133   0.809840715958207   0.110928562044746   1.0000000
B2   B   0.333204286617032   0.952051004750943   0.110956348200805   1.0000000
B2   B   0.331976033928071   0.093715085871486   0.111157669292852   1.0000000
B2   B   0.331042194961588   0.236590339787653   0.111130046576620   1.0000000
B2   B   0.330736675708213   0.379681605259269   0.110809525530858   1.0000000
B2   B   0.331729938972838   0.524224089106833   0.111115977032698   1.0000000
B2   B   0.333079745549141   0.667117255634724   0.111291947395057   1.0000000
B2   B   0.333356845890330   0.809682719195806   0.111087823359212   1.0000000
B2   B   0.475974284033049   0.952038944353106   0.110956633424015   1.0000000
B2   B   0.475669465666845   0.094182930848923   0.111154037356244   1.0000000
B2   B   0.472520498956255   0.234222660973570   0.111463470195799   1.0000000
B2   B   0.471152657286542   0.375767956712877   0.110863035344539   1.0000000
B2   B   0.471246830915959   0.525347241777651   0.110136976228134   1.0000000
B2   B   0.475432904853124   0.667391194719142   0.111026605518783   1.0000000
B2   B   0.475939774479506   0.809757045599883   0.111150523857985   1.0000000
B2   B   0.618924280323280   0.952288357940732   0.110992083311699   1.0000000
B2   B   0.618982912600464   0.093515883460177   0.110997474159547   1.0000000
B2   B   0.619436814985169   0.234085738607635   0.111487848173612   1.0000000
B2   B   0.611306800150202   0.364329058957156   0.111187687023687   1.0000000
B2   B   0.612007971209115   0.531735072954909   0.110283176444816   1.0000000
B2   B   0.619997882979514   0.671144245417509   0.110638205924946   1.0000000
B2   B   0.619033972563355   0.811139864416980   0.111100442739077   1.0000000
B2   B   0.762145103643932   0.952946835703238   0.111066018835057   1.0000000
B2   B   0.762120620969136   0.094813964084538   0.110976827644028   1.0000000
B2   B   0.762528709472907   0.236828774903132   0.111043103537567   1.0000000
B2   B   0.763400299776775   0.379178898808457   0.111500246915714   1.0000000
B2   B   0.777518378606306   0.531762145825413   0.111797403311023   1.0000000
B2   B   0.763421771144906   0.669702794377266   0.110939123542917   1.0000000
B2   B   0.762631092860558   0.811407262558277   0.111133457886955   1.0000000
N2   N   0.953066198735963   0.905941955646541   0.111071720184809   1.0000000
N2   N   0.952572085533598   0.047963979012095   0.111008339506769   1.0000000
N2   N   0.952605311907443   0.190254609128737   0.110972477444901   1.0000000
N2   N   0.953173227717730   0.332834359596255   0.110917644230258   1.0000000
N2   N   0.955006354461263   0.475884474247088   0.110866158826748   1.0000000
N2   N   0.954584206153484   0.620187696679971   0.111036255299224   1.0000000
N2   N   0.955043068465490   0.764914270506858   0.111044738655181   1.0000000
N2   N   0.096032351116612   0.905738937987787   0.110927141552623   1.0000000
N2   N   0.095044824443184   0.047758613801200   0.110960188949297   1.0000000
N2   N   0.094691732023815   0.190203711826377   0.110964709360808   1.0000000
N2   N   0.095091965426150   0.333046699792008   0.110993274342437   1.0000000
N2   N   0.096050654817671   0.476086056205757   0.110988354659061   1.0000000
N2   N   0.096322803714191   0.619405288830084   0.110919962888876   1.0000000
N2   N   0.096328219769894   0.762709332314338   0.110912919969232   1.0000000
N2   N   0.238288465343812   0.904876232617008   0.110877255399999   1.0000000
N2   N   0.237378698228555   0.047146745750468   0.110979660942591   1.0000000
N2   N   0.236629933450278   0.189769659056862   0.111096867087200   1.0000000
N2   N   0.236607173288004   0.332720969601676   0.111002693884164   1.0000000
N2   N   0.237446602894128   0.476071764163482   0.111213270361615   1.0000000
N2   N   0.238298689686000   0.619237093246547   0.111236065006813   1.0000000
N2   N   0.238494295470833   0.762157401491914   0.111029554804698   1.0000000
N2   N   0.380885761990961   0.904610495548737   0.110945186274528   1.0000000
N2   N   0.380407989676987   0.046968721068916   0.111043470218057   1.0000000
N2   N   0.378284764023604   0.188461624683554   0.111332784676381   1.0000000
N2   N   0.377712393803102   0.332163325144116   0.110826338081141   1.0000000
N2   N   0.378498478723535   0.475789761525839   0.110724409357716   1.0000000
N2   N   0.380428320734878   0.619248650020712   0.111215333976812   1.0000000
N2   N   0.380881992456319   0.762056582833170   0.111199630030781   1.0000000
N2   N   0.523678257014095   0.904628214972251   0.110985534770333   1.0000000
N2   N   0.523585483075444   0.046821088740863   0.110955855945314   1.0000000
N2   N   0.522935902664506   0.188964363354855   0.111432804932163   1.0000000
N2   N   0.517906708357796   0.329172892591313   0.111342137721879   1.0000000
N2   N   0.522936544379751   0.619360684630980   0.110525023071253   1.0000000
N2   N   0.523542855461073   0.762275980854983   0.111144218571049   1.0000000
N2   N   0.666844053318591   0.905553090993262   0.111054112990757   1.0000000
N2   N   0.666878439387466   0.046785651550883   0.110918217407719   1.0000000
N2   N   0.667247342531136   0.187652584499903   0.111120213355333   1.0000000
N2   N   0.667959011934792   0.327208665369302   0.111700050078683   1.0000000
N2   N   0.667299019468895   0.625706839374278   0.110387251907432   1.0000000
N2   N   0.667193727524072   0.765048466060937   0.111050303838102   1.0000000
N2   N   0.810139619949095   0.906025077183685   0.111116920120486   1.0000000
N2   N   0.809876565468020   0.047711684847487   0.111009108116542   1.0000000
N2   N   0.810186225245837   0.189714764074733   0.110944628480894   1.0000000
N2   N   0.810954877826785   0.332042727959206   0.111088753673641   1.0000000
N2   N   0.815116099376732   0.475516336222231   0.111557256105393   1.0000000
N2   N   0.815254247853936   0.625537709294178   0.111212270413955   1.0000000
N2   N   0.810689874674858   0.764333462229931   0.111137457868965   1.0000000
O2   O   0.515660687342533   0.475694139527619   0.109049882875275   1.0000000
S2   S   0.666540580302792   0.475501222706169   0.110994105932900   1.0000000


