data_1
_audit_creation_method   'vasp2cif'
_cell_length_a    14.93631414619966
_cell_length_b    14.936314146199727
_cell_length_c    13.341276283792837
_cell_angle_alpha    90.0
_cell_angle_beta    90.0
_cell_angle_gamma    119.99999999999984

_symmetry_space_group_name_H-M    'P 1'
loop_
_atom_site_label
_atom_site_type_symbol
_atom_site_fract_x
_atom_site_fract_y
_atom_site_fract_z
_atom_site_occupancy
Se2   Se   0.555555555555557   0.444444444444443   0.375000000000000   1.0000000
N2   N   0.111106661942407   0.055544394639964   0.124936411436837   1.0000000
N2   N   0.611128798726663   0.555590930786649   0.124748806512408   1.0000000
N2   N   0.444437064365994   0.055546478641307   0.125107549847846   1.0000000
N2   N   0.944453521358687   0.555562935633997   0.125107549847846   1.0000000
N2   N   0.777777747205777   0.055555540269558   0.124889738074862   1.0000000
N2   N   0.111115617038430   0.722224475185877   0.625101528619953   1.0000000
N2   N   0.444437064365994   0.722223919058021   0.624892450152143   1.0000000
N2   N   0.277759559202197   0.222208888116671   0.624813521584253   1.0000000
N2   N   0.777791111883338   0.722240440797800   0.624813521584253   1.0000000
N2   N   0.611115995581140   0.222208888116671   0.624813521584253   1.0000000
N2   N   0.944444459730432   0.222222252794219   0.625110261925126   1.0000000
N2   N   0.277775524814123   0.722224475185877   0.124898471380042   1.0000000
N2   N   0.111099861327529   0.222216597330433   0.124949640764415   1.0000000
N2   N   0.444443189167195   0.222219711667713   0.125426509520411   1.0000000
N2   N   0.611115995581140   0.722240440797800   0.125186478415742   1.0000000
N2   N   0.944453521358687   0.722223919058021   0.125107549847846   1.0000000
N2   N   0.777783402669578   0.222216597330433   0.124949640764415   1.0000000
N2   N   0.111113279839003   0.888886720161001   0.625105076669077   1.0000000
N2   N   0.444440106988665   0.888886720161001   0.625105076669077   1.0000000
N2   N   0.277759559202197   0.388884004418861   0.624813521584253   1.0000000
N2   N   0.611128798726663   0.388871201273340   0.625251193487594   1.0000000
N2   N   0.777783402669578   0.888900138672466   0.625050359235580   1.0000000
N2   N   0.944455605360040   0.388895600635771   0.625063588563167   1.0000000
N2   N   0.111106661942407   0.388895600635771   0.124936411436837   1.0000000
N2   N   0.277775524814123   0.888884382961574   0.124898471380042   1.0000000
N2   N   0.611104399364229   0.888893338057595   0.124936411436837   1.0000000
N2   N   0.444409069213350   0.388871201273340   0.124748806512408   1.0000000
N2   N   0.944455605360040   0.888893338057595   0.124936411436837   1.0000000
N2   N   0.777791111883338   0.388884004418861   0.125186478415742   1.0000000
N2   N   0.277776080941972   0.555562935633997   0.624892450152143   1.0000000
N2   N   0.111106661942407   0.055544394639964   0.625063588563167   1.0000000
N2   N   0.611128798726663   0.555590930786649   0.625251193487594   1.0000000
N2   N   0.444437064365994   0.055546478641307   0.624892450152143   1.0000000
N2   N   0.944453521358687   0.555562935633997   0.624892450152143   1.0000000
N2   N   0.111113279839003   0.555559893011327   0.124894923330919   1.0000000
N2   N   0.777777747205777   0.055555540269558   0.625110261925126   1.0000000
N2   N   0.277776080941972   0.055546478641307   0.125107549847846   1.0000000
N2   N   0.444443189167195   0.555556810832810   0.125426509520411   1.0000000
N2   N   0.777780288332274   0.555556810832810   0.125426509520411   1.0000000
N2   N   0.611104399364229   0.055544394639964   0.124936411436837   1.0000000
N2   N   0.444443189167195   0.555556810832810   0.624573490479597   1.0000000
N2   N   0.944444459730432   0.055555540269558   0.124889738074862   1.0000000
N2   N   0.277775524814123   0.722224475185877   0.625101528619953   1.0000000
N2   N   0.111099861327529   0.222216597330433   0.625050359235580   1.0000000
N2   N   0.444443189167195   0.222219711667713   0.624573490479597   1.0000000
N2   N   0.611115995581140   0.722240440797800   0.624813521584253   1.0000000
N2   N   0.944453521358687   0.722223919058021   0.624892450152143   1.0000000
N2   N   0.777783402669578   0.222216597330433   0.625050359235580   1.0000000
N2   N   0.111115617038430   0.722224475185877   0.124898471380042   1.0000000
N2   N   0.444437064365994   0.722223919058021   0.125107549847846   1.0000000
N2   N   0.277759559202197   0.222208888116671   0.125186478415742   1.0000000
N2   N   0.777791111883338   0.722240440797800   0.125186478415742   1.0000000
N2   N   0.611115995581140   0.222208888116671   0.125186478415742   1.0000000
N2   N   0.944444459730432   0.222222252794219   0.124889738074862   1.0000000
N2   N   0.111106661942407   0.388895600635771   0.625063588563167   1.0000000
N2   N   0.277775524814123   0.888884382961574   0.625101528619953   1.0000000
N2   N   0.611104399364229   0.888893338057595   0.625063588563167   1.0000000
N2   N   0.444409069213350   0.388871201273340   0.625251193487594   1.0000000
N2   N   0.944455605360040   0.888893338057595   0.625063588563167   1.0000000
N2   N   0.111113279839003   0.888886720161001   0.124894923330919   1.0000000
N2   N   0.777791111883338   0.388884004418861   0.624813521584253   1.0000000
N2   N   0.444440106988665   0.888886720161001   0.124894923330919   1.0000000
N2   N   0.277759559202197   0.388884004418861   0.125186478415742   1.0000000
N2   N   0.277776080941972   0.555562935633997   0.125107549847846   1.0000000
N2   N   0.611128798726663   0.388871201273340   0.124748806512408   1.0000000
N2   N   0.777783402669578   0.888900138672466   0.124949640764415   1.0000000
N2   N   0.944455605360040   0.388895600635771   0.124936411436837   1.0000000
N2   N   0.111113279839003   0.555559893011327   0.625105076669077   1.0000000
N2   N   0.277776080941972   0.055546478641307   0.624892450152143   1.0000000
N2   N   0.777780288332274   0.555556810832810   0.624573490479597   1.0000000
N2   N   0.611104399364229   0.055544394639964   0.625063588563167   1.0000000
N2   N   0.944444459730432   0.055555540269558   0.625110261925126   1.0000000
N2   N   0.054573869077560   0.110477798168629   0.375000000000000   1.0000000
N2   N   0.555600711231998   0.619409860999951   0.375000000000000   1.0000000
N2   N   0.387827270066529   0.108987873466395   0.375000000000000   1.0000000
N2   N   0.891012126533600   0.612172729933461   0.375000000000000   1.0000000
N2   N   0.722570595757744   0.110477798168629   0.375000000000000   1.0000000
N2   N   0.055554979568116   0.777779661668780   0.875000000000000   1.0000000
N2   N   0.388891348767329   0.777779661668780   0.875000000000000   1.0000000
N2   N   0.222215934534748   0.277774633934042   0.875000000000000   1.0000000
N2   N   0.722225366065968   0.777784065465251   0.875000000000000   1.0000000
N2   N   0.555553705135038   0.277779107607427   0.875000000000000   1.0000000
N2   N   0.888891937181045   0.277778938893490   0.875000000000000   1.0000000
N2   N   0.222222222222221   0.777777777777779   0.375000000000000   1.0000000
N2   N   0.054573869077560   0.277429404242269   0.375000000000000   1.0000000
N2   N   0.380590139000051   0.269524183565375   0.375000000000000   1.0000000
N2   N   0.555243356907473   0.781084905128948   0.375000000000000   1.0000000
N2   N   0.892508214888141   0.781084905128948   0.375000000000000   1.0000000
N2   N   0.723769121207651   0.276230878792352   0.375000000000000   1.0000000
N2   N   0.055554818045149   0.944445181954853   0.875000000000000   1.0000000
N2   N   0.388891348767329   0.944445020431886   0.875000000000000   1.0000000
N2   N   0.222223866903196   0.444443087148742   0.875000000000000   1.0000000
N2   N   0.555555555555557   0.444444444444443   0.875000000000000   1.0000000
N2   N   0.722221061106516   0.944446331620872   0.875000000000000   1.0000000
N2   N   0.888885886912218   0.444443087148742   0.875000000000000   1.0000000
N2   N   0.055705422256091   0.444744177845516   0.375000000000000   1.0000000
N2   N   0.221888973236568   0.943593328467640   0.375000000000000   1.0000000
N2   N   0.555255822154482   0.944294577743902   0.375000000000000   1.0000000
N2   N   0.380590139000051   0.444399288767999   0.375000000000000   1.0000000
N2   N   0.889522201831372   0.945426130922442   0.375000000000000   1.0000000
N2   N   0.730475816434622   0.444399288767999   0.375000000000000   1.0000000
N2   N   0.222220338331218   0.611108651232673   0.875000000000000   1.0000000
N2   N   0.055553668379121   0.111108062818968   0.875000000000000   1.0000000
N2   N   0.555553705135038   0.611107930860951   0.875000000000000   1.0000000
N2   N   0.388886860942685   0.111107055218724   0.875000000000000   1.0000000
N2   N   0.888892944781287   0.611113139057308   0.875000000000000   1.0000000
N2   N   0.056406671532354   0.611628978102250   0.375000000000000   1.0000000
N2   N   0.722221061106516   0.111108062818968   0.875000000000000   1.0000000
N2   N   0.218915094871053   0.107491785111854   0.375000000000000   1.0000000
N2   N   0.387827270066529   0.612172729933461   0.375000000000000   1.0000000
N2   N   0.730475816434622   0.619409860999951   0.375000000000000   1.0000000
N2   N   0.555243356907473   0.107491785111854   0.375000000000000   1.0000000
N2   N   0.388886860942685   0.611113139057308   0.875000000000000   1.0000000
N2   N   0.888888888888886   0.111111111111114   0.375000000000000   1.0000000
N2   N   0.222222222222221   0.777777777777779   0.875000000000000   1.0000000
N2   N   0.055553668379121   0.277778938893490   0.875000000000000   1.0000000
N2   N   0.388892069139049   0.277779107607427   0.875000000000000   1.0000000
N2   N   0.555556912851257   0.777776133096798   0.875000000000000   1.0000000
N2   N   0.888885886912218   0.777776133096798   0.875000000000000   1.0000000
N2   N   0.722225366065968   0.277774633934042   0.875000000000000   1.0000000
N2   N   0.056406671532354   0.778111026763429   0.375000000000000   1.0000000
N2   N   0.388371021897749   0.778111026763429   0.375000000000000   1.0000000
N2   N   0.219128424251365   0.276230878792352   0.375000000000000   1.0000000
N2   N   0.723769121207651   0.780871575748631   0.375000000000000   1.0000000
N2   N   0.555600711231998   0.269524183565375   0.375000000000000   1.0000000
N2   N   0.889522201831373   0.277429404242269   0.375000000000000   1.0000000
N2   N   0.055554818045149   0.444442969423630   0.875000000000000   1.0000000
N2   N   0.222220338331218   0.944445020431886   0.875000000000000   1.0000000
N2   N   0.555557030576366   0.944445181954853   0.875000000000000   1.0000000
N2   N   0.388892069139049   0.444446294864962   0.875000000000000   1.0000000
N2   N   0.888891937181045   0.944446331620872   0.875000000000000   1.0000000
N2   N   0.055705422256091   0.944294577743902   0.375000000000000   1.0000000
N2   N   0.722220892392572   0.444446294864962   0.875000000000000   1.0000000
N2   N   0.388371021897749   0.943593328467640   0.375000000000000   1.0000000
N2   N   0.218915094871053   0.444756643092534   0.375000000000000   1.0000000
N2   N   0.221888973236568   0.611628978102250   0.375000000000000   1.0000000
N2   N   0.722570595757744   0.945426130922442   0.375000000000000   1.0000000
N2   N   0.892508214888141   0.444756643092534   0.375000000000000   1.0000000
N2   N   0.055554979568116   0.611108651232673   0.875000000000000   1.0000000
N2   N   0.222223866903196   0.111114113087790   0.875000000000000   1.0000000
N2   N   0.722220892392572   0.611107930860951   0.875000000000000   1.0000000
N2   N   0.555556912851260   0.111114113087790   0.875000000000000   1.0000000
N2   N   0.888888888888886   0.111111111111114   0.875000000000000   1.0000000
B2   B   0.108948640422045   0.053986051581931   0.375000000000000   1.0000000
B2   B   0.624543563906100   0.582420461145521   0.375000000000000   1.0000000
B2   B   0.444052457599062   0.053670566296294   0.375000000000000   1.0000000
B2   B   0.946329433703704   0.555947542400925   0.375000000000000   1.0000000
B2   B   0.778323142146251   0.055828237739789   0.375000000000000   1.0000000
B2   B   0.110921327768488   0.722127330550911   0.875000000000000   1.0000000
B2   B   0.444534885065471   0.722419793643646   0.875000000000000   1.0000000
B2   B   0.277844784189688   0.222111886714975   0.875000000000000   1.0000000
B2   B   0.777888113285028   0.722155215810314   0.875000000000000   1.0000000
B2   B   0.610933769191973   0.222111886714975   0.875000000000000   1.0000000
B2   B   0.944538839260835   0.222411011855002   0.875000000000000   1.0000000
B2   B   0.277502236999903   0.722497763000107   0.375000000000000   1.0000000
B2   B   0.108600639091479   0.220966986212402   0.375000000000000   1.0000000
B2   B   0.442510873106952   0.218355079547251   0.375000000000000   1.0000000
B2   B   0.612495461131203   0.729638432751863   0.375000000000000   1.0000000
B2   B   0.946329433703704   0.723715224636106   0.375000000000000   1.0000000
B2   B   0.779033013787600   0.220966986212402   0.375000000000000   1.0000000
B2   B   0.111205332826329   0.888794667173672   0.875000000000000   1.0000000
B2   B   0.444256001014023   0.888794667173672   0.875000000000000   1.0000000
B2   B   0.277844784189685   0.389066230808031   0.875000000000000   1.0000000
B2   B   0.611200314928146   0.388799685071867   0.875000000000000   1.0000000
B2   B   0.777881600972436   0.889096535278179   0.875000000000000   1.0000000
B2   B   0.944256956068810   0.388782549146599   0.875000000000000   1.0000000
B2   B   0.108948640422045   0.388295922173444   0.375000000000000   1.0000000
B2   B   0.277502236999903   0.888337807333135   0.375000000000000   1.0000000
B2   B   0.611704077826567   0.891051359577953   0.375000000000000   1.0000000
B2   B   0.417579538854489   0.375456436093904   0.375000000000000   1.0000000
B2   B   0.946013948418062   0.891051359577953   0.375000000000000   1.0000000
B2   B   0.783809638287345   0.387504538868804   0.375000000000000   1.0000000
B2   B   0.277580206356364   0.555465114934523   0.875000000000000   1.0000000
B2   B   0.111192259744460   0.055743043931188   0.875000000000000   1.0000000
B2   B   0.611200314928146   0.555733963189594   0.875000000000000   1.0000000
B2   B   0.444534885065471   0.055448424755174   0.875000000000000   1.0000000
B2   B   0.944551575244828   0.555465114934523   0.875000000000000   1.0000000
B2   B   0.111200780537416   0.555734894408167   0.375000000000000   1.0000000
B2   B   0.777588988145001   0.055461160739167   0.875000000000000   1.0000000
B2   B   0.276284775363897   0.053670566296294   0.375000000000000   1.0000000
B2   B   0.442510873106952   0.557489126893041   0.375000000000000   1.0000000
B2   B   0.781644920452760   0.557489126893041   0.375000000000000   1.0000000
B2   B   0.611704077826567   0.053986051581931   0.375000000000000   1.0000000
B2   B   0.444527695279390   0.555472304720610   0.875000000000000   1.0000000
B2   B   0.944171762260210   0.055828237739789   0.375000000000000   1.0000000
B2   B   0.277872669449090   0.722127330550911   0.875000000000000   1.0000000
B2   B   0.110903464721812   0.222118399027572   0.875000000000000   1.0000000
B2   B   0.444527695279390   0.222388723892119   0.875000000000000   1.0000000
B2   B   0.610933769191973   0.722155215810314   0.875000000000000   1.0000000
B2   B   0.944551575244828   0.722419793643646   0.875000000000000   1.0000000
B2   B   0.777881600972436   0.222118399027572   0.875000000000000   1.0000000
B2   B   0.111662192666866   0.722497763000107   0.375000000000000   1.0000000
B2   B   0.444052457599062   0.723715224636106   0.375000000000000   1.0000000
B2   B   0.270361567248119   0.216190361712648   0.375000000000000   1.0000000
B2   B   0.783809638287345   0.729638432751863   0.375000000000000   1.0000000
B2   B   0.612495461131203   0.216190361712648   0.375000000000000   1.0000000
B2   B   0.944171762260210   0.221676857853758   0.375000000000000   1.0000000
B2   B   0.111192259744460   0.388782549146599   0.875000000000000   1.0000000
B2   B   0.277872669449090   0.889078672231509   0.875000000000000   1.0000000
B2   B   0.611217450853401   0.888807740255537   0.875000000000000   1.0000000
B2   B   0.444266036810399   0.388799685071867   0.875000000000000   1.0000000
B2   B   0.944256956068816   0.888807740255537   0.875000000000000   1.0000000
B2   B   0.111200780537416   0.888799219462584   0.375000000000000   1.0000000
B2   B   0.777888113285028   0.389066230808031   0.875000000000000   1.0000000
B2   B   0.444265105591842   0.888799219462584   0.375000000000000   1.0000000
B2   B   0.270361567248119   0.387504538868803   0.375000000000000   1.0000000
B2   B   0.276284775363897   0.555947542400925   0.375000000000000   1.0000000
B2   B   0.624543563906100   0.375456436093904   0.375000000000000   1.0000000
B2   B   0.779033013787600   0.891399360908532   0.375000000000000   1.0000000
B2   B   0.946013948418062   0.388295922173444   0.375000000000000   1.0000000
B2   B   0.111205332826329   0.555743998985983   0.875000000000000   1.0000000
B2   B   0.277580206356364   0.055448424755174   0.875000000000000   1.0000000
B2   B   0.777611276107885   0.555472304720610   0.875000000000000   1.0000000
B2   B   0.611217450853401   0.055743043931188   0.875000000000000   1.0000000
B2   B   0.944538839260837   0.055461160739167   0.875000000000000   1.0000000
B2   B   0.055514798305615   0.111081315671821   0.125017069586659   1.0000000
B2   B   0.555550709458881   0.611232307677522   0.124825286759705   1.0000000
B2   B   0.388819321550409   0.110971976434169   0.125248624528265   1.0000000
B2   B   0.889028023565840   0.611180678449582   0.125248624528265   1.0000000
B2   B   0.722233184032862   0.111081315671821   0.125017069586659   1.0000000
B2   B   0.055616678015744   0.777801909629193   0.624980304885178   1.0000000
B2   B   0.388851898280114   0.777801909629193   0.624980304885178   1.0000000
B2   B   0.222101921514143   0.277717627423747   0.624907067814819   1.0000000
B2   B   0.722282372576263   0.777898078485843   0.624907067814819   1.0000000
B2   B   0.555550709458881   0.277651735114694   0.625174713240297   1.0000000
B2   B   0.888918684328180   0.277766815967135   0.624982930413347   1.0000000
B2   B   0.222222222222221   0.777777777777779   0.125013758974056   1.0000000
B2   B   0.055514798305615   0.277766815967135   0.125017069586659   1.0000000
B2   B   0.388767692322476   0.277651735114694   0.124825286759705   1.0000000
B2   B   0.555535224112471   0.777862226435411   0.125083184792003   1.0000000
B2   B   0.888993668989580   0.777862226435411   0.125083184792003   1.0000000
B2   B   0.722282372576263   0.277717627423747   0.125092932185177   1.0000000
B2   B   0.055565853900631   0.944434146099377   0.624961360672669   1.0000000
B2   B   0.388851898280114   0.944383321984253   0.624980304885178   1.0000000
B2   B   0.222137773564604   0.444464775887522   0.624916815207998   1.0000000
B2   B   0.555555555555557   0.444444444444443   0.625689030133521   1.0000000
B2   B   0.722233184032862   0.944485201694391   0.624982930413347   1.0000000
B2   B   0.888993668989580   0.444464775887522   0.624916815207998   1.0000000
B2   B   0.055565853900631   0.444465041134595   0.125038639327342   1.0000000
B2   B   0.222198090370808   0.944383321984253   0.125019695114811   1.0000000
B2   B   0.555534958865413   0.944434146099377   0.125038639327342   1.0000000
B2   B   0.388767692322476   0.444449290541118   0.124825286759705   1.0000000
B2   B   0.888918684328180   0.944485201694391   0.125017069586659   1.0000000
B2   B   0.722348264885301   0.444449290541118   0.124825286759705   1.0000000
B2   B   0.222198090370808   0.611148101719888   0.624980304885178   1.0000000
B2   B   0.055514798305615   0.111081315671821   0.624982930413347   1.0000000
B2   B   0.555550709458881   0.611232307677522   0.625174713240297   1.0000000
B2   B   0.388819321550409   0.110971976434169   0.624751375471745   1.0000000
B2   B   0.889028023565840   0.611180678449582   0.624751375471745   1.0000000
B2   B   0.055616678015744   0.611148101719888   0.125019695114811   1.0000000
B2   B   0.722233184032862   0.111081315671821   0.624982930413347   1.0000000
B2   B   0.222137773564604   0.111006331010418   0.125083184792003   1.0000000
B2   B   0.388819321550409   0.611180678449582   0.125248624528265   1.0000000
B2   B   0.722348264885301   0.611232307677522   0.124825286759705   1.0000000
B2   B   0.555535224112471   0.111006331010418   0.125083184792003   1.0000000
B2   B   0.388819321550409   0.611180678449582   0.624751375471745   1.0000000
B2   B   0.888888888888886   0.111111111111114   0.125066372653994   1.0000000
B2   B   0.222222222222221   0.777777777777779   0.624986241025947   1.0000000
B2   B   0.055514798305615   0.277766815967135   0.624982930413347   1.0000000
B2   B   0.388767692322476   0.277651735114694   0.625174713240297   1.0000000
B2   B   0.555535224112471   0.777862226435411   0.624916815207998   1.0000000
B2   B   0.888993668989580   0.777862226435411   0.624916815207998   1.0000000
B2   B   0.722282372576263   0.277717627423747   0.624907067814819   1.0000000
B2   B   0.055616678015744   0.777801909629193   0.125019695114811   1.0000000
B2   B   0.388851898280114   0.777801909629193   0.125019695114811   1.0000000
B2   B   0.222101921514143   0.277717627423747   0.125092932185177   1.0000000
B2   B   0.722282372576263   0.777898078485843   0.125092932185177   1.0000000
B2   B   0.555550709458881   0.277651735114694   0.124825286759705   1.0000000
B2   B   0.888918684328180   0.277766815967135   0.125017069586659   1.0000000
B2   B   0.055565853900631   0.444465041134595   0.624961360672669   1.0000000
B2   B   0.222198090370808   0.944383321984253   0.624980304885178   1.0000000
B2   B   0.555534958865413   0.944434146099377   0.624961360672669   1.0000000
B2   B   0.388767692322476   0.444449290541118   0.625174713240297   1.0000000
B2   B   0.888918684328180   0.944485201694391   0.624982930413347   1.0000000
B2   B   0.055565853900631   0.944434146099377   0.125038639327342   1.0000000
B2   B   0.722348264885301   0.444449290541118   0.625174713240297   1.0000000
B2   B   0.388851898280114   0.944383321984253   0.125019695114811   1.0000000
B2   B   0.222137773564604   0.444464775887522   0.125083184792003   1.0000000
B2   B   0.222198090370808   0.611148101719888   0.125019695114811   1.0000000
B2   B   0.555555555555557   0.444444444444443   0.124310969866471   1.0000000
B2   B   0.722233184032862   0.944485201694391   0.125017069586659   1.0000000
B2   B   0.888993668989580   0.444464775887522   0.125083184792003   1.0000000
B2   B   0.055616678015744   0.611148101719888   0.624980304885178   1.0000000
B2   B   0.222137773564604   0.111006331010418   0.624916815207998   1.0000000
B2   B   0.722348264885301   0.611232307677522   0.625174713240297   1.0000000
B2   B   0.555535224112471   0.111006331010418   0.624916815207998   1.0000000
B2   B   0.888888888888886   0.111111111111114   0.624933627346002   1.0000000


