data_1
_audit_creation_method   'vasp2cif'
_cell_length_a    14.93631414619966
_cell_length_b    14.936314146199727
_cell_length_c    13.341276283792837
_cell_angle_alpha    90.0
_cell_angle_beta    90.0
_cell_angle_gamma    119.99999999999984

_symmetry_space_group_name_H-M    'P 1'
loop_
_atom_site_label
_atom_site_type_symbol
_atom_site_fract_x
_atom_site_fract_y
_atom_site_fract_z
_atom_site_occupancy
O2   O   0.561953511939138   0.447643422636233   0.375000000000000   1.0000000
N2   N   0.111092896667398   0.055551948467414   0.125003012015524   1.0000000
N2   N   0.611084343848626   0.555524676374147   0.125621906201211   1.0000000
N2   N   0.444446576751392   0.055558739119841   0.124997906122375   1.0000000
N2   N   0.944443062006032   0.555553456782644   0.125035878543546   1.0000000
N2   N   0.777761944042474   0.055547638687908   0.125032028359513   1.0000000
N2   N   0.111113599758316   0.722223466545826   0.624968714231675   1.0000000
N2   N   0.444446576751392   0.722221170964880   0.625002093877625   1.0000000
N2   N   0.277741982107694   0.222213639752804   0.624914287399881   1.0000000
N2   N   0.777761938780731   0.722209614421253   0.624958077319422   1.0000000
N2   N   0.611099809200325   0.222218733934338   0.624927895792666   1.0000000
N2   N   0.944421436889184   0.222213017099729   0.624976326297133   1.0000000
N2   N   0.277781569721371   0.722219241438628   0.125017502792228   1.0000000
N2   N   0.111080881900909   0.222207107617123   0.125018193955393   1.0000000
N2   N   0.444450207140462   0.222221859993329   0.125133509480865   1.0000000
N2   N   0.611099809200325   0.722214408599316   0.125072104207333   1.0000000
N2   N   0.944443062006032   0.722222938556725   0.125035878543546   1.0000000
N2   N   0.777765445920649   0.222217130152863   0.125029348729440   1.0000000
N2   N   0.111112927688199   0.888895420905552   0.624974916187723   1.0000000
N2   N   0.444447196012829   0.888890264673075   0.624981454472065   1.0000000
N2   N   0.277741982107694   0.388861675688219   0.624914287399881   1.0000000
N2   N   0.611084343848626   0.388893000807807   0.624378093798789   1.0000000
N2   N   0.777765445920649   0.888881649101115   0.624970651270560   1.0000000
N2   N   0.944433767162772   0.388885532667489   0.624976382739554   1.0000000
N2   N   0.111092896667398   0.388874281533304   0.125003012015524   1.0000000
N2   N   0.277781569721371   0.888895661616071   0.125017502792228   1.0000000
N2   N   0.611104234629939   0.888887443948910   0.125021240127662   1.0000000
N2   N   0.444417461551746   0.388875397442534   0.124917358557843   1.0000000
N2   N   0.944433767162772   0.888881567828605   0.125023617260446   1.0000000
N2   N   0.777761938780731   0.388885657692806   0.125041922680578   1.0000000
N2   N   0.277776638444141   0.555542696511128   0.624990758902370   1.0000000
N2   N   0.111092896667398   0.055551948467414   0.624996987984476   1.0000000
N2   N   0.611084343848626   0.555524676374147   0.624378093798789   1.0000000
N2   N   0.444446576751392   0.055558739119841   0.625002093877625   1.0000000
N2   N   0.944443062006032   0.555553456782644   0.624964121456455   1.0000000
N2   N   0.111112927688199   0.555550840115983   0.125025083812277   1.0000000
N2   N   0.777761944042474   0.055547638687908   0.624967971640486   1.0000000
N2   N   0.277776638444141   0.055567275266349   0.125009241097637   1.0000000
N2   N   0.444450207140462   0.555561680480469   0.125133509480865   1.0000000
N2   N   0.777763639935466   0.555548486634401   0.125100940731441   1.0000000
N2   N   0.611104234629939   0.055550124014357   0.125021240127662   1.0000000
N2   N   0.444450207140462   0.555561680480469   0.624866490519134   1.0000000
N2   N   0.944421436889184   0.055541753122790   0.125023673702867   1.0000000
N2   N   0.277781569721371   0.722219241438628   0.624982497207771   1.0000000
N2   N   0.111080881900909   0.222207107617123   0.624981806044607   1.0000000
N2   N   0.444450207140462   0.222221859993329   0.624866490519134   1.0000000
N2   N   0.611099809200325   0.722214408599316   0.624927895792666   1.0000000
N2   N   0.944443062006032   0.722222938556725   0.624964121456455   1.0000000
N2   N   0.777765445920649   0.222217130152863   0.624970651270560   1.0000000
N2   N   0.111113599758316   0.722223466545826   0.125031285768325   1.0000000
N2   N   0.444446576751392   0.722221170964880   0.124997906122375   1.0000000
N2   N   0.277741982107694   0.222213639752804   0.125085712600119   1.0000000
N2   N   0.777761938780731   0.722209614421253   0.125041922680578   1.0000000
N2   N   0.611099809200325   0.222218733934338   0.125072104207333   1.0000000
N2   N   0.944421436889184   0.222213017099729   0.125023673702867   1.0000000
N2   N   0.111092896667398   0.388874281533304   0.624996987984476   1.0000000
N2   N   0.277781569721371   0.888895661616071   0.624982497207771   1.0000000
N2   N   0.611104234629939   0.888887443948910   0.624978759872338   1.0000000
N2   N   0.444417461551746   0.388875397442534   0.625082641442156   1.0000000
N2   N   0.944433767162772   0.888881567828605   0.624976382739554   1.0000000
N2   N   0.111112927688199   0.888895420905552   0.125025083812277   1.0000000
N2   N   0.777761938780731   0.388885657692806   0.624958077319422   1.0000000
N2   N   0.444447196012829   0.888890264673075   0.125018545527935   1.0000000
N2   N   0.277741982107694   0.388861675688219   0.125085712600119   1.0000000
N2   N   0.277776638444141   0.555542696511128   0.125009241097637   1.0000000
N2   N   0.611084343848626   0.388893000807807   0.125621906201211   1.0000000
N2   N   0.777765445920649   0.888881649101115   0.125029348729440   1.0000000
N2   N   0.944433767162772   0.388885532667489   0.125023617260446   1.0000000
N2   N   0.111112927688199   0.555550840115983   0.624974916187723   1.0000000
N2   N   0.277776638444141   0.055567275266349   0.624990758902370   1.0000000
N2   N   0.777763639935466   0.555548486634401   0.624899059268559   1.0000000
N2   N   0.611104234629939   0.055550124014357   0.624978759872338   1.0000000
N2   N   0.944421436889184   0.055541753122790   0.624976326297133   1.0000000
N2   N   0.054488018858292   0.110410310740219   0.375000000000000   1.0000000
N2   N   0.557143106828173   0.610067081038300   0.375000000000000   1.0000000
N2   N   0.389161619164527   0.110763814398711   0.375000000000000   1.0000000
N2   N   0.889994903538463   0.611664118435903   0.375000000000000   1.0000000
N2   N   0.722117947513269   0.111201995157894   0.375000000000000   1.0000000
N2   N   0.055557158072512   0.777778031084723   0.875000000000000   1.0000000
N2   N   0.388891004819482   0.777780349592714   0.875000000000000   1.0000000
N2   N   0.222221839555562   0.277777586444449   0.875000000000000   1.0000000
N2   N   0.722225508139768   0.777778276292095   0.875000000000000   1.0000000
N2   N   0.555558946360372   0.277781130265219   0.875000000000000   1.0000000
N2   N   0.888892736810008   0.277782647377914   0.875000000000000   1.0000000
N2   N   0.222654561122715   0.777993947228025   0.375000000000000   1.0000000
N2   N   0.054488018858292   0.277411041451408   0.375000000000000   1.0000000
N2   N   0.382907909744339   0.267007508104848   0.375000000000000   1.0000000
N2   N   0.555990643517235   0.777303086552749   0.375000000000000   1.0000000
N2   N   0.889277035208994   0.777788069720173   0.375000000000000   1.0000000
N2   N   0.722537834681989   0.278292406069554   0.375000000000000   1.0000000
N2   N   0.055557116398076   0.944442401798069   0.875000000000000   1.0000000
N2   N   0.388891004819482   0.944443988560105   0.875000000000000   1.0000000
N2   N   0.222222356088368   0.444447154106849   0.875000000000000   1.0000000
N2   N   0.555560967126946   0.444447150230141   0.875000000000000   1.0000000
N2   N   0.722222980211075   0.944444471739724   0.875000000000000   1.0000000
N2   N   0.888894915945431   0.444448146946614   0.875000000000000   1.0000000
N2   N   0.055235412309702   0.444637391747524   0.375000000000000   1.0000000
N2   N   0.222482918328436   0.944459280381541   0.375000000000000   1.0000000
N2   N   0.555794383979096   0.944563858656212   0.375000000000000   1.0000000
N2   N   0.382907909744339   0.449233734972820   0.375000000000000   1.0000000
N2   N   0.888586272419082   0.944099472363302   0.375000000000000   1.0000000
N2   N   0.723500715075128   0.445407434567036   0.375000000000000   1.0000000
N2   N   0.222222606963197   0.611113091139218   0.875000000000000   1.0000000
N2   N   0.055556167187553   0.111108892702194   0.875000000000000   1.0000000
N2   N   0.555558946360372   0.611111149428490   0.875000000000000   1.0000000
N2   N   0.388891803347182   0.111111214212314   0.875000000000000   1.0000000
N2   N   0.888894035910472   0.611113684621904   0.875000000000000   1.0000000
N2   N   0.056132663629097   0.611445831361107   0.375000000000000   1.0000000
N2   N   0.722222980211075   0.111111841804687   0.875000000000000   1.0000000
N2   N   0.220813769766672   0.109594135065283   0.375000000000000   1.0000000
N2   N   0.389161619164527   0.611731138099160   0.375000000000000   1.0000000
N2   N   0.723500715075128   0.611426613841429   0.375000000000000   1.0000000
N2   N   0.555990643517235   0.112020890297815   0.375000000000000   1.0000000
N2   N   0.388891803347182   0.611113922468218   0.875000000000000   1.0000000
N2   N   0.888344342897540   0.110838838115442   0.375000000000000   1.0000000
N2   N   0.222223942927588   0.777778638130462   0.875000000000000   1.0000000
N2   N   0.055556167187553   0.277780607818695   0.875000000000000   1.0000000
N2   N   0.388891435019465   0.277777495889582   0.875000000000000   1.0000000
N2   N   0.555556446258067   0.777779040269239   0.875000000000000   1.0000000
N2   N   0.888894915945431   0.777780102332153   0.875000000000000   1.0000000
N2   N   0.722225508139768   0.277780565181008   0.875000000000000   1.0000000
N2   N   0.056132663629097   0.778020165601326   0.375000000000000   1.0000000
N2   N   0.389244647971614   0.777993241215988   0.375000000000000   1.0000000
N2   N   0.219565142974849   0.276449238154092   0.375000000000000   1.0000000
N2   N   0.722537834681989   0.777578761945771   0.375000000000000   1.0000000
N2   N   0.557143106828173   0.280409359123208   0.375000000000000   1.0000000
N2   N   0.888586272419082   0.277820133389115   0.375000000000000   1.0000000
N2   N   0.055557116398076   0.444448047933335   0.875000000000000   1.0000000
N2   N   0.222222606963197   0.944442849157314   0.875000000000000   1.0000000
N2   N   0.555555045912523   0.944444189622929   0.875000000000000   1.0000000
N2   N   0.388891435019465   0.444447272463218   0.875000000000000   1.0000000
N2   N   0.888892736810008   0.944443422765423   0.875000000000000   1.0000000
N2   N   0.055235412309702   0.943931353895507   0.375000000000000   1.0000000
N2   N   0.722223952175326   0.444445885440769   0.875000000000000   1.0000000
N2   N   0.389244647971614   0.944584740088962   0.375000000000000   1.0000000
N2   N   0.220813769766672   0.444552968034718   0.375000000000000   1.0000000
N2   N   0.222482918328436   0.611356971280230   0.375000000000000   1.0000000
N2   N   0.722117947513269   0.944249285688711   0.375000000000000   1.0000000
N2   N   0.889277035208994   0.444822298822158   0.375000000000000   1.0000000
N2   N   0.055557158072512   0.611112460321126   0.875000000000000   1.0000000
N2   N   0.222222356088368   0.111108535314855   0.875000000000000   1.0000000
N2   N   0.722223952175326   0.611111400067892   0.875000000000000   1.0000000
N2   N   0.555556446258067   0.111110739322164   0.875000000000000   1.0000000
N2   N   0.888892654026433   0.111112993679885   0.875000000000000   1.0000000
B2   B   0.110156337682379   0.054839624653433   0.375000000000000   1.0000000
B2   B   0.612538338512875   0.554169478960129   0.375000000000000   1.0000000
B2   B   0.444829179453356   0.055763384675933   0.375000000000000   1.0000000
B2   B   0.945188913072857   0.555897992146079   0.375000000000000   1.0000000
B2   B   0.777404765072351   0.055369049202844   0.375000000000000   1.0000000
B2   B   0.111114793682993   0.722224063508157   0.875000000000000   1.0000000
B2   B   0.444440115438430   0.722209069984577   0.875000000000000   1.0000000
B2   B   0.277797964959702   0.222239269640877   0.875000000000000   1.0000000
B2   B   0.777775376912177   0.722216149381616   0.875000000000000   1.0000000
B2   B   0.611101732686816   0.222230051579334   0.875000000000000   1.0000000
B2   B   0.944457589511874   0.222229902754708   0.875000000000000   1.0000000
B2   B   0.278145978272666   0.722386973189060   0.375000000000000   1.0000000
B2   B   0.109420043254218   0.221376688293773   0.375000000000000   1.0000000
B2   B   0.446258819021524   0.223369761497027   0.375000000000000   1.0000000
B2   B   0.611566698934309   0.721362443728881   0.375000000000000   1.0000000
B2   B   0.945188913072857   0.722624254260113   0.375000000000000   1.0000000
B2   B   0.777648684266308   0.222327375206860   0.375000000000000   1.0000000
B2   B   0.111118644567502   0.888896124306522   0.875000000000000   1.0000000
B2   B   0.444441006632743   0.888887169983039   0.875000000000000   1.0000000
B2   B   0.277797964959702   0.388892028652154   0.875000000000000   1.0000000
B2   B   0.611092816926861   0.388888954813803   0.875000000000000   1.0000000
B2   B   0.777780169988244   0.888885744000848   0.875000000000000   1.0000000
B2   B   0.944452859026587   0.388893986592338   0.875000000000000   1.0000000
B2   B   0.110156337682379   0.388650046362282   0.375000000000000   1.0000000
B2   B   0.278145978272666   0.889092338416941   0.375000000000000   1.0000000
B2   B   0.611132061180527   0.888561758936574   0.375000000000000   1.0000000
B2   B   0.944334538658888   0.888701708524006   0.375000000000000   1.0000000
B2   B   0.778367314176110   0.389302211698713   0.375000000000000   1.0000000
B2   B   0.277785065351701   0.555547477824329   0.875000000000000   1.0000000
B2   B   0.111126913107974   0.055566704098685   0.875000000000000   1.0000000
B2   B   0.611092816926861   0.555537195446386   0.875000000000000   1.0000000
B2   B   0.444440115438430   0.055564378787188   0.875000000000000   1.0000000
B2   B   0.944447768048332   0.555557291883902   0.875000000000000   1.0000000
B2   B   0.111452292630096   0.555761273113658   0.375000000000000   1.0000000
B2   B   0.777782069650999   0.055557701492171   0.875000000000000   1.0000000
B2   B   0.277927930807018   0.055653610423170   0.375000000000000   1.0000000
B2   B   0.446258819021524   0.556222390857839   0.375000000000000   1.0000000
B2   B   0.779294662475730   0.556313997904529   0.375000000000000   1.0000000
B2   B   0.611132061180527   0.055903635577282   0.375000000000000   1.0000000
B2   B   0.444434685859890   0.555530122455563   0.875000000000000   1.0000000
B2   B   0.943723838142155   0.055100446278397   0.375000000000000   1.0000000
B2   B   0.277779983102207   0.722218703869343   0.875000000000000   1.0000000
B2   B   0.111133065771517   0.222233199552427   0.875000000000000   1.0000000
B2   B   0.444434685859890   0.222237896737670   0.875000000000000   1.0000000
B2   B   0.611101732686816   0.722205014440812   0.875000000000000   1.0000000
B2   B   0.944447768048332   0.722223809497766   0.875000000000000   1.0000000
B2   B   0.777780169988244   0.222227759320724   0.875000000000000   1.0000000
B2   B   0.111643153655529   0.722488243494426   0.375000000000000   1.0000000
B2   B   0.444829179453356   0.722399128110759   0.375000000000000   1.0000000
B2   B   0.275174438628267   0.221623332578204   0.375000000000000   1.0000000
B2   B   0.778367314176110   0.722398435810725   0.375000000000000   1.0000000
B2   B   0.611566698934309   0.223537588538749   0.375000000000000   1.0000000
B2   B   0.943723838142155   0.221956725197086   0.375000000000000   1.0000000
B2   B   0.111126913107974   0.388893542342625   0.875000000000000   1.0000000
B2   B   0.277779983102207   0.888894612566193   0.875000000000000   1.0000000
B2   B   0.611106880817912   0.888881944338946   0.875000000000000   1.0000000
B2   B   0.444432897243489   0.388883115288409   0.875000000000000   1.0000000
B2   B   0.944452859026587   0.888892205767578   0.875000000000000   1.0000000
B2   B   0.111452292630096   0.889024352849767   0.375000000000000   1.0000000
B2   B   0.777775376912177   0.388892560863890   0.875000000000000   1.0000000
B2   B   0.444709232960337   0.889021283146836   0.375000000000000   1.0000000
B2   B   0.275174438628267   0.386884439383399   0.375000000000000   1.0000000
B2   B   0.277927930807018   0.555607653717183   0.375000000000000   1.0000000
B2   B   0.612538338512875   0.391702192886074   0.375000000000000   1.0000000
B2   B   0.777648684266308   0.888654642392776   0.375000000000000   1.0000000
B2   B   0.944334538658888   0.388966163468211   0.375000000000000   1.0000000
B2   B   0.111118644567502   0.555555853594310   0.875000000000000   1.0000000
B2   B   0.277785065351701   0.055570920860709   0.875000000000000   1.0000000
B2   B   0.777771605818824   0.555552469576084   0.875000000000000   1.0000000
B2   B   0.611106880817912   0.055558269812295   0.875000000000000   1.0000000
B2   B   0.944457589511874   0.055561020090502   0.875000000000000   1.0000000
B2   B   0.055564271451334   0.111123539389245   0.124979754178338   1.0000000
B2   B   0.555466252227279   0.611035410091036   0.125268363022801   1.0000000
B2   B   0.388907280997825   0.111190878995276   0.125066514732235   1.0000000
B2   B   0.888875168122463   0.611104250727907   0.124992171132186   1.0000000
B2   B   0.722207983480408   0.111106182052477   0.124991879884918   1.0000000
B2   B   0.055566645210865   0.777793990225792   0.625004571292999   1.0000000
B2   B   0.388900723416431   0.777766352604586   0.625005076638027   1.0000000
B2   B   0.222286676325227   0.277810004829277   0.624922353322008   1.0000000
B2   B   0.722188351452193   0.777755851413032   0.624993994962828   1.0000000
B2   B   0.555466252227279   0.277764175469578   0.624731636977198   1.0000000
B2   B   0.888880512084744   0.277773474022983   0.625007461878397   1.0000000
B2   B   0.222241370814619   0.777787352073974   0.125000537296864   1.0000000
B2   B   0.055564271451334   0.277774065395424   0.124979754178338   1.0000000
B2   B   0.388921388510426   0.277900232197767   0.125716385917623   1.0000000
B2   B   0.555536035026877   0.777752909203348   0.124988202596541   1.0000000
B2   B   0.888872816971234   0.777772143180268   0.124989609397434   1.0000000
B2   B   0.722188351452193   0.277765833372504   0.125006005037173   1.0000000
B2   B   0.055566362244445   0.944471109814257   0.625005654817783   1.0000000
B2   B   0.388900723416431   0.944467704145174   0.625005076638027   1.0000000
B2   B   0.222268331223135   0.444400528708045   0.624934168377776   1.0000000
B2   B   0.555304623582025   0.444318978457680   0.624405093199154   1.0000000
B2   B   0.722207983480408   0.944435134761266   0.625008120115082   1.0000000
B2   B   0.888872816971234   0.444434007124308   0.625010390602566   1.0000000
B2   B   0.055566362244445   0.444428585763516   0.124994345182216   1.0000000
B2   B   0.222250605594073   0.944499456061050   0.124987815024662   1.0000000
B2   B   0.555547443782405   0.944440388557867   0.124992322374690   1.0000000
B2   B   0.388921388510426   0.444354489645994   0.125716385917623   1.0000000
B2   B   0.888880512084744   0.944440371395103   0.124992538121603   1.0000000
B2   B   0.722148639419251   0.444412859117433   0.125161891393385   1.0000000
B2   B   0.222250605594073   0.611084482866352   0.625012184975338   1.0000000
B2   B   0.055564271451334   0.111123539389245   0.625020245821662   1.0000000
B2   B   0.555466252227279   0.611035410091036   0.624731636977198   1.0000000
B2   B   0.388907280997825   0.111190878995276   0.624933485267765   1.0000000
B2   B   0.888875168122463   0.611104250727907   0.625007828867813   1.0000000
B2   B   0.055566645210865   0.611105988318408   0.124995428707001   1.0000000
B2   B   0.722207983480408   0.111106182052477   0.625008120115082   1.0000000
B2   B   0.222268331223135   0.111201135848426   0.125065831622224   1.0000000
B2   B   0.388907280997825   0.611049735335892   0.125066514732235   1.0000000
B2   B   0.722148639419251   0.611069113635153   0.125161891393385   1.0000000
B2   B   0.555536035026877   0.111116459156864   0.124988202596541   1.0000000
B2   B   0.388907280997825   0.611049735335892   0.624933485267765   1.0000000
B2   B   0.888880806787449   0.111107070060392   0.124993881467829   1.0000000
B2   B   0.222241370814619   0.777787352073974   0.624999462703137   1.0000000
B2   B   0.055564271451334   0.277774065395424   0.625020245821662   1.0000000
B2   B   0.388921388510426   0.277900232197767   0.624283614082377   1.0000000
B2   B   0.555536035026877   0.777752909203348   0.625011797403459   1.0000000
B2   B   0.888872816971234   0.777772143180268   0.625010390602566   1.0000000
B2   B   0.722188351452193   0.277765833372504   0.624993994962828   1.0000000
B2   B   0.055566645210865   0.777793990225792   0.124995428707001   1.0000000
B2   B   0.388900723416431   0.777766352604586   0.124994923361973   1.0000000
B2   B   0.222286676325227   0.277810004829277   0.125077646677992   1.0000000
B2   B   0.722188351452193   0.777755851413032   0.125006005037173   1.0000000
B2   B   0.555466252227279   0.277764175469578   0.125268363022801   1.0000000
B2   B   0.888880512084744   0.277773474022983   0.124992538121603   1.0000000
B2   B   0.055566362244445   0.444428585763516   0.625005654817783   1.0000000
B2   B   0.222250605594073   0.944499456061050   0.625012184975338   1.0000000
B2   B   0.555547443782405   0.944440388557867   0.625007677625311   1.0000000
B2   B   0.388921388510426   0.444354489645994   0.624283614082377   1.0000000
B2   B   0.888880512084744   0.944440371395103   0.625007461878397   1.0000000
B2   B   0.055566362244445   0.944471109814257   0.124994345182216   1.0000000
B2   B   0.722148639419251   0.444412859117433   0.624838108606615   1.0000000
B2   B   0.388900723416431   0.944467704145174   0.124994923361973   1.0000000
B2   B   0.222268331223135   0.444400528708045   0.125065831622224   1.0000000
B2   B   0.222250605594073   0.611084482866352   0.124987815024662   1.0000000
B2   B   0.555304623582025   0.444318978457680   0.125594906800846   1.0000000
B2   B   0.722207983480408   0.944435134761266   0.124991879884918   1.0000000
B2   B   0.888872816971234   0.444434007124308   0.124989609397434   1.0000000
B2   B   0.055566645210865   0.611105988318408   0.625004571292999   1.0000000
B2   B   0.222268331223135   0.111201135848426   0.624934168377776   1.0000000
B2   B   0.722148639419251   0.611069113635153   0.624838108606615   1.0000000
B2   B   0.555536035026877   0.111116459156864   0.625011797403459   1.0000000
B2   B   0.888880806787449   0.111107070060392   0.625006118532171   1.0000000


