data_1
_audit_creation_method   'vasp2cif'
_cell_length_a    14.93631414619966
_cell_length_b    14.936314146199727
_cell_length_c    13.341276283792837
_cell_angle_alpha    90.0
_cell_angle_beta    90.0
_cell_angle_gamma    119.99999999999984

_symmetry_space_group_name_H-M    'P 1'
loop_
_atom_site_label
_atom_site_type_symbol
_atom_site_fract_x
_atom_site_fract_y
_atom_site_fract_z
_atom_site_occupancy
C2   C   0.389546316075093   0.444739696682012   0.375000000000000   1.0000000
O2   O   0.557861740238583   0.443852108751173   0.375000000000000   1.0000000
N2   N   0.111120680691536   0.055553962012130   0.124986507783274   1.0000000
N2   N   0.611096294149491   0.555531477434173   0.125875201102954   1.0000000
N2   N   0.444438143258379   0.055541250334001   0.124983285734238   1.0000000
N2   N   0.944463096748036   0.555565798050362   0.124993876547486   1.0000000
N2   N   0.777769639498997   0.055550308250017   0.124944398081770   1.0000000
N2   N   0.111119542739001   0.722222632626965   0.625043479015866   1.0000000
N2   N   0.444437369427337   0.722232540093593   0.625010204101325   1.0000000
N2   N   0.277795330697488   0.222231854093613   0.624773918036456   1.0000000
N2   N   0.777783987096129   0.722210591594458   0.624904137743878   1.0000000
N2   N   0.611097801713396   0.222217033473201   0.624924820443813   1.0000000
N2   N   0.944445323546171   0.222229633174961   0.625055789523571   1.0000000
N2   N   0.277778683266386   0.722224834040458   0.124984489228468   1.0000000
N2   N   0.111117052549680   0.222224306376967   0.124975929857825   1.0000000
N2   N   0.444442621790511   0.222215170818854   0.125260492535462   1.0000000
N2   N   0.611101199139322   0.722212705319887   0.125084481266811   1.0000000
N2   N   0.944462109661134   0.722225826404860   0.124987342104671   1.0000000
N2   N   0.777771374774105   0.222228520628728   0.124968010763729   1.0000000
N2   N   0.111120225127900   0.888885823553788   0.625041576526033   1.0000000
N2   N   0.444436766761724   0.888887920219610   0.625054679720091   1.0000000
N2   N   0.277774871309786   0.388901257121349   0.624926316650933   1.0000000
N2   N   0.611105191931817   0.388903628678249   0.624139167278713   1.0000000
N2   N   0.777775707816722   0.888877483579886   0.625025563118605   1.0000000
N2   N   0.944449395738807   0.388902112922043   0.625050609358840   1.0000000
N2   N   0.111111349801014   0.388902165279124   0.124954064884072   1.0000000
N2   N   0.277778630654003   0.888884138426736   0.124962479757440   1.0000000
N2   N   0.611100670028744   0.888884314420435   0.124952296430670   1.0000000
N2   N   0.444475229856402   0.388900521738546   0.125928637999998   1.0000000
N2   N   0.944454570768683   0.888883982862567   0.124957214468794   1.0000000
N2   N   0.777786337238956   0.388903488055483   0.125073482533711   1.0000000
N2   N   0.277779833190666   0.555565390858948   0.624910327546886   1.0000000
N2   N   0.111120680691536   0.055553962012130   0.625013492216726   1.0000000
N2   N   0.611096294149491   0.555531477434173   0.624124798897047   1.0000000
N2   N   0.444438143258379   0.055541250334001   0.625016714265762   1.0000000
N2   N   0.944463096748036   0.555565798050362   0.625006123452514   1.0000000
N2   N   0.111117897505812   0.555566314270376   0.124981189490785   1.0000000
N2   N   0.777769639498997   0.055550308250017   0.625055601918230   1.0000000
N2   N   0.277778089835088   0.055546240472277   0.125035565216244   1.0000000
N2   N   0.444449551967130   0.555576150347082   0.125174778162976   1.0000000
N2   N   0.777788351543804   0.555558815379135   0.125216273239818   1.0000000
N2   N   0.611097416904895   0.055549703172017   0.124943047178354   1.0000000
N2   N   0.444449551967130   0.555576150347082   0.624825221837024   1.0000000
N2   N   0.944449038640544   0.055549470057741   0.124946458471312   1.0000000
N2   N   0.277778683266386   0.722224834040458   0.625015510771533   1.0000000
N2   N   0.111117052549680   0.222224306376967   0.625024070142175   1.0000000
N2   N   0.444442621790511   0.222215170818854   0.624739507464538   1.0000000
N2   N   0.611101199139322   0.722212705319887   0.624915518733190   1.0000000
N2   N   0.944462109661134   0.722225826404860   0.625012657895329   1.0000000
N2   N   0.777771374774105   0.222228520628728   0.625031989236271   1.0000000
N2   N   0.111119542739001   0.722222632626965   0.124956520984134   1.0000000
N2   N   0.444437369427337   0.722232540093593   0.124989795898676   1.0000000
N2   N   0.277795330697488   0.222231854093613   0.125226081963544   1.0000000
N2   N   0.777783987096129   0.722210591594458   0.125095862256122   1.0000000
N2   N   0.611097801713396   0.222217033473201   0.125075179556187   1.0000000
N2   N   0.944445323546171   0.222229633174961   0.124944210476429   1.0000000
N2   N   0.111111349801014   0.388902165279124   0.625045935115929   1.0000000
N2   N   0.277778630654003   0.888884138426736   0.625037520242560   1.0000000
N2   N   0.611100670028744   0.888884314420435   0.625047703569329   1.0000000
N2   N   0.444475229856402   0.388900521738546   0.624071362000002   1.0000000
N2   N   0.944454570768683   0.888883982862567   0.625042785531207   1.0000000
N2   N   0.111120225127900   0.888885823553788   0.124958423473966   1.0000000
N2   N   0.777786337238956   0.388903488055483   0.624926517466289   1.0000000
N2   N   0.444436766761724   0.888887920219610   0.124945320279909   1.0000000
N2   N   0.277774871309786   0.388901257121349   0.125073683349067   1.0000000
N2   N   0.277779833190666   0.555565390858948   0.125089672453114   1.0000000
N2   N   0.611105191931817   0.388903628678249   0.125860832721287   1.0000000
N2   N   0.777775707816722   0.888877483579886   0.124974436881395   1.0000000
N2   N   0.944449395738807   0.388902112922043   0.124949390641160   1.0000000
N2   N   0.111117897505812   0.555566314270376   0.625018810509214   1.0000000
N2   N   0.277778089835088   0.055546240472277   0.624964434783757   1.0000000
N2   N   0.777788351543804   0.555558815379135   0.624783726760182   1.0000000
N2   N   0.611097416904895   0.055549703172017   0.625056952821647   1.0000000
N2   N   0.944449038640544   0.055549470057741   0.625053541528689   1.0000000
N2   N   0.054649517275340   0.110201220893823   0.375000000000000   1.0000000
N2   N   0.557295777830630   0.612538155789515   0.375000000000000   1.0000000
N2   N   0.389040445319021   0.110480617321772   0.375000000000000   1.0000000
N2   N   0.888725995314535   0.611071980790895   0.375000000000000   1.0000000
N2   N   0.722224705781983   0.111166087728042   0.375000000000000   1.0000000
N2   N   0.055553475743126   0.777773470000983   0.875000000000000   1.0000000
N2   N   0.388888095210009   0.777775674821854   0.875000000000000   1.0000000
N2   N   0.222227176517656   0.277777946273461   0.875000000000000   1.0000000
N2   N   0.722222913839009   0.777776307144176   0.875000000000000   1.0000000
N2   N   0.555562535623094   0.277778958607955   0.875000000000000   1.0000000
N2   N   0.888890540296171   0.277773880716264   0.875000000000000   1.0000000
N2   N   0.222106016048702   0.777840515912511   0.375000000000000   1.0000000
N2   N   0.054643762301292   0.277306971641244   0.375000000000000   1.0000000
N2   N   0.390321804707934   0.276659964041807   0.375000000000000   1.0000000
N2   N   0.556074247191166   0.778429304729284   0.375000000000000   1.0000000
N2   N   0.888710753725495   0.777554151180696   0.375000000000000   1.0000000
N2   N   0.722302231878204   0.277815854772178   0.375000000000000   1.0000000
N2   N   0.055557783595727   0.944446451093884   0.875000000000000   1.0000000
N2   N   0.388891086725418   0.944444675461748   0.875000000000000   1.0000000
N2   N   0.222214385352816   0.444439120236286   0.875000000000000   1.0000000
N2   N   0.555554669130380   0.444447693695884   0.875000000000000   1.0000000
N2   N   0.722228012816784   0.944448220052292   0.875000000000000   1.0000000
N2   N   0.888897225636294   0.444444023715530   0.875000000000000   1.0000000
N2   N   0.054600313558587   0.444409725576361   0.375000000000000   1.0000000
N2   N   0.222161558121470   0.944472483215905   0.375000000000000   1.0000000
N2   N   0.555726622932796   0.944768117427492   0.375000000000000   1.0000000
N2   N   0.888853762079013   0.944331466842227   0.375000000000000   1.0000000
N2   N   0.722338003796095   0.444602121707329   0.375000000000000   1.0000000
N2   N   0.222219716837461   0.611104428572837   0.875000000000000   1.0000000
N2   N   0.055553443553846   0.111106611905255   0.875000000000000   1.0000000
N2   N   0.555559151978322   0.611115977996307   0.875000000000000   1.0000000
N2   N   0.388893639442311   0.111116166360010   0.875000000000000   1.0000000
N2   N   0.888884419285019   0.611106364169035   0.875000000000000   1.0000000
N2   N   0.055372744355453   0.611141237866723   0.375000000000000   1.0000000
N2   N   0.722224785834843   0.111110220106480   0.875000000000000   1.0000000
N2   N   0.222356755028811   0.111240917220291   0.375000000000000   1.0000000
N2   N   0.389455121521951   0.613401789229193   0.375000000000000   1.0000000
N2   N   0.721678029212031   0.610294431440322   0.375000000000000   1.0000000
N2   N   0.555735365337044   0.111267039443754   0.375000000000000   1.0000000
N2   N   0.388890395486182   0.611101441561790   0.875000000000000   1.0000000
N2   N   0.888582467306225   0.110913663554405   0.375000000000000   1.0000000
N2   N   0.222221072273996   0.777772884854279   0.875000000000000   1.0000000
N2   N   0.055553444203758   0.277769830015404   0.875000000000000   1.0000000
N2   N   0.388888970710852   0.277776996409608   0.875000000000000   1.0000000
N2   N   0.555556620379805   0.777783201660066   0.875000000000000   1.0000000
N2   N   0.888896869772701   0.777785374271143   0.875000000000000   1.0000000
N2   N   0.722222117961880   0.277776137726817   0.875000000000000   1.0000000
N2   N   0.055424253623794   0.777754764258624   0.375000000000000   1.0000000
N2   N   0.388945456336444   0.778678663543933   0.375000000000000   1.0000000
N2   N   0.219973085564754   0.275918063692517   0.375000000000000   1.0000000
N2   N   0.723013398398320   0.778416282962715   0.375000000000000   1.0000000
N2   N   0.555922711820710   0.278106402756354   0.375000000000000   1.0000000
N2   N   0.888549132012029   0.277687300185005   0.375000000000000   1.0000000
N2   N   0.055554456856611   0.444440348562462   0.875000000000000   1.0000000
N2   N   0.222221759346680   0.944441556345958   0.875000000000000   1.0000000
N2   N   0.555555689519651   0.944441750866695   0.875000000000000   1.0000000
N2   N   0.388890918586007   0.444440462950964   0.875000000000000   1.0000000
N2   N   0.888890698176981   0.944444710127244   0.875000000000000   1.0000000
N2   N   0.055465239998158   0.944329727299741   0.375000000000000   1.0000000
N2   N   0.722225359531180   0.444442487289306   0.875000000000000   1.0000000
N2   N   0.388906123236731   0.944548450769768   0.375000000000000   1.0000000
N2   N   0.220086827932108   0.443915548768013   0.375000000000000   1.0000000
N2   N   0.222122933434751   0.611138224810933   0.375000000000000   1.0000000
N2   N   0.722394895090380   0.944660594475140   0.375000000000000   1.0000000
N2   N   0.888588782056759   0.444472957449868   0.375000000000000   1.0000000
N2   N   0.055555000904248   0.611106015148013   0.875000000000000   1.0000000
N2   N   0.222217930063438   0.111105293002178   0.875000000000000   1.0000000
N2   N   0.722220230457128   0.611113218597889   0.875000000000000   1.0000000
N2   N   0.555556089824838   0.111099846204959   0.875000000000000   1.0000000
N2   N   0.888892791555882   0.111108583259337   0.875000000000000   1.0000000
B2   B   0.110647831470755   0.055253623950472   0.375000000000000   1.0000000
B2   B   0.613047771279736   0.559025232013902   0.375000000000000   1.0000000
B2   B   0.444648177342873   0.055014835712902   0.375000000000000   1.0000000
B2   B   0.944602659748413   0.555556067261819   0.375000000000000   1.0000000
B2   B   0.777787055240239   0.055650038367938   0.375000000000000   1.0000000
B2   B   0.111301655782562   0.722365136337047   0.875000000000000   1.0000000
B2   B   0.444408575714381   0.722052345959370   0.875000000000000   1.0000000
B2   B   0.277613269176299   0.222242280944873   0.875000000000000   1.0000000
B2   B   0.777655900241521   0.722295085056669   0.875000000000000   1.0000000
B2   B   0.611305102443923   0.222341098797154   0.875000000000000   1.0000000
B2   B   0.944411303613183   0.222029307601125   0.875000000000000   1.0000000
B2   B   0.277740344207260   0.722499202402560   0.375000000000000   1.0000000
B2   B   0.109020904166032   0.220685265685025   0.375000000000000   1.0000000
B2   B   0.444589014427586   0.220011141911963   0.375000000000000   1.0000000
B2   B   0.612822905079102   0.724522261852072   0.375000000000000   1.0000000
B2   B   0.944672334761837   0.722461743524858   0.375000000000000   1.0000000
B2   B   0.777877647684721   0.221955126690083   0.375000000000000   1.0000000
B2   B   0.110966769163938   0.888927919824724   0.875000000000000   1.0000000
B2   B   0.444629950305629   0.889031383943691   0.875000000000000   1.0000000
B2   B   0.277718278674449   0.388706142709218   0.875000000000000   1.0000000
B2   B   0.610988393534153   0.388908723394027   0.875000000000000   1.0000000
B2   B   0.777756507791056   0.888733851518098   0.875000000000000   1.0000000
B2   B   0.944643905535893   0.389025696988734   0.875000000000000   1.0000000
B2   B   0.109235191230523   0.388402008645487   0.375000000000000   1.0000000
B2   B   0.277733965932421   0.888866081803798   0.375000000000000   1.0000000
B2   B   0.611539630283946   0.889634447023076   0.375000000000000   1.0000000
B2   B   0.944458511292585   0.889001714130298   0.375000000000000   1.0000000
B2   B   0.778365780269752   0.388421531813606   0.375000000000000   1.0000000
B2   B   0.277932096589405   0.555683173485189   0.875000000000000   1.0000000
B2   B   0.111063430051931   0.055364104219313   0.875000000000000   1.0000000
B2   B   0.611083650531610   0.555422530699938   0.875000000000000   1.0000000
B2   B   0.444301337395157   0.055572948778185   0.875000000000000   1.0000000
B2   B   0.944321315618529   0.555590393212175   0.875000000000000   1.0000000
B2   B   0.110799923174273   0.555500499030098   0.375000000000000   1.0000000
B2   B   0.777975685285842   0.055706162404435   0.875000000000000   1.0000000
B2   B   0.277549084304878   0.055145558482735   0.375000000000000   1.0000000
B2   B   0.446475829667706   0.560909468231112   0.375000000000000   1.0000000
B2   B   0.778779287179303   0.555941765358153   0.375000000000000   1.0000000
B2   B   0.611380190196483   0.055609053662618   0.375000000000000   1.0000000
B2   B   0.444285628861791   0.555594289824556   0.875000000000000   1.0000000
B2   B   0.943871210461934   0.055191378220059   0.375000000000000   1.0000000
B2   B   0.277621953492742   0.722250197115907   0.875000000000000   1.0000000
B2   B   0.111267199353465   0.222356134792638   0.875000000000000   1.0000000
B2   B   0.444386994625332   0.222018384160251   0.875000000000000   1.0000000
B2   B   0.611294204613503   0.722389542684265   0.875000000000000   1.0000000
B2   B   0.944426106259428   0.722058698327387   0.875000000000000   1.0000000
B2   B   0.777650450768748   0.222244257829921   0.875000000000000   1.0000000
B2   B   0.111081139332650   0.722289039035139   0.375000000000000   1.0000000
B2   B   0.444839848409919   0.724187685924484   0.375000000000000   1.0000000
B2   B   0.276726381134535   0.221627220533130   0.375000000000000   1.0000000
B2   B   0.778288766689396   0.723068609417352   0.375000000000000   1.0000000
B2   B   0.611830663037276   0.221701087246467   0.375000000000000   1.0000000
B2   B   0.943771130816390   0.221829099699649   0.375000000000000   1.0000000
B2   B   0.110958601296700   0.388917606979682   0.875000000000000   1.0000000
B2   B   0.277734533072356   0.888693480124645   0.875000000000000   1.0000000
B2   B   0.610968191149869   0.888936512571665   0.875000000000000   1.0000000
B2   B   0.444572418579019   0.389013431076804   0.875000000000000   1.0000000
B2   B   0.944640417208530   0.889051495511174   0.875000000000000   1.0000000
B2   B   0.111010058173856   0.888851821867503   0.375000000000000   1.0000000
B2   B   0.777765047991727   0.388697511037839   0.875000000000000   1.0000000
B2   B   0.444650940444503   0.889444849899113   0.375000000000000   1.0000000
B2   B   0.272332007058462   0.386091053719321   0.375000000000000   1.0000000
B2   B   0.277386510155466   0.555645316542114   0.375000000000000   1.0000000
B2   B   0.613996676438736   0.386972835953398   0.375000000000000   1.0000000
B2   B   0.778288807313371   0.889671312828225   0.375000000000000   1.0000000
B2   B   0.943949417900754   0.388656024130352   0.375000000000000   1.0000000
B2   B   0.111077206872967   0.555365298726846   0.875000000000000   1.0000000
B2   B   0.277941115743716   0.055684066326706   0.875000000000000   1.0000000
B2   B   0.777986781024265   0.555713091661871   0.875000000000000   1.0000000
B2   B   0.611078854600649   0.055357919444114   0.875000000000000   1.0000000
B2   B   0.944297809137888   0.055598759939945   0.875000000000000   1.0000000
B2   B   0.055522435052518   0.111085386764269   0.125119768568419   1.0000000
B2   B   0.555515500909144   0.611260807793256   0.125142654966734   1.0000000
B2   B   0.388808093680135   0.110931063984809   0.125029032380673   1.0000000
B2   B   0.889071884262214   0.611198443843947   0.125015291694143   1.0000000
B2   B   0.722221926269244   0.111080732515221   0.125081274424414   1.0000000
B2   B   0.055633179507230   0.777802504799886   0.624917062188615   1.0000000
B2   B   0.388849724372376   0.777809202475230   0.624875782422600   1.0000000
B2   B   0.222109885015398   0.277734736353864   0.624916556320607   1.0000000
B2   B   0.722271608984763   0.777878095204209   0.624973031824801   1.0000000
B2   B   0.555526095005531   0.277596721945128   0.624888142398885   1.0000000
B2   B   0.888917739708489   0.277778341061366   0.624893196970840   1.0000000
B2   B   0.222225509269916   0.777776202539286   0.125071036813509   1.0000000
B2   B   0.055522018104665   0.277779712221644   0.125085448256715   1.0000000
B2   B   0.388751165142817   0.277596317906160   0.125196756563483   1.0000000
B2   B   0.555521191879747   0.777859203009297   0.125055759485302   1.0000000
B2   B   0.889008844793344   0.777857261575618   0.125075004876230   1.0000000
B2   B   0.722276311928937   0.277728167888563   0.125016145353956   1.0000000
B2   B   0.055572993059394   0.944427542491060   0.624952194205317   1.0000000
B2   B   0.388848653427772   0.944369978612120   0.624915227750270   1.0000000
B2   B   0.222133312073490   0.444480448974931   0.624867144490284   1.0000000
B2   B   0.555572774759470   0.444456312066559   0.625102811554756   1.0000000
B2   B   0.722222735437071   0.944474457491549   0.624890768528381   1.0000000
B2   B   0.889007088704758   0.444479421960272   0.624947251185262   1.0000000
B2   B   0.055569212538705   0.444473763126797   0.125055001065436   1.0000000
B2   B   0.222197189778308   0.944365914674887   0.125119137490246   1.0000000
B2   B   0.555524703497823   0.944429357006685   0.125040373354693   1.0000000
B2   B   0.388739743282735   0.444501052920484   0.125225563473722   1.0000000
B2   B   0.888919417759624   0.944475389862604   0.125084566236957   1.0000000
B2   B   0.722414310474430   0.444485925242968   0.125124093289474   1.0000000
B2   B   0.222196558004224   0.611158216903507   0.624859704566440   1.0000000
B2   B   0.055522435052518   0.111085386764269   0.624880231431581   1.0000000
B2   B   0.555515500909144   0.611260807793256   0.624857345033266   1.0000000
B2   B   0.388808093680135   0.110931063984809   0.624970967619327   1.0000000
B2   B   0.889071884262214   0.611198443843947   0.624984708305857   1.0000000
B2   B   0.055631930197425   0.611155662939015   0.125119022140575   1.0000000
B2   B   0.722221926269244   0.111080732515221   0.624918725575586   1.0000000
B2   B   0.222140636659240   0.110993397567803   0.125105043883576   1.0000000
B2   B   0.388805914618463   0.611210303913387   0.125059809831664   1.0000000
B2   B   0.722410369783706   0.611254811457427   0.125112884621627   1.0000000
B2   B   0.555523638295574   0.110993781623301   0.125068392132452   1.0000000
B2   B   0.388805914618463   0.611210303913387   0.624940190168336   1.0000000
B2   B   0.888887453619551   0.111110745555367   0.125060831531588   1.0000000
B2   B   0.222225509269916   0.777776202539286   0.624928963186491   1.0000000
B2   B   0.055522018104665   0.277779712221644   0.624914551743286   1.0000000
B2   B   0.388751165142817   0.277596317906160   0.624803243436517   1.0000000
B2   B   0.555521191879747   0.777859203009297   0.624944240514698   1.0000000
B2   B   0.889008844793344   0.777857261575618   0.624924995123770   1.0000000
B2   B   0.722276311928937   0.277728167888563   0.624983854646044   1.0000000
B2   B   0.055633179507230   0.777802504799886   0.125082937811385   1.0000000
B2   B   0.388849724372376   0.777809202475230   0.125124217577400   1.0000000
B2   B   0.222109885015398   0.277734736353864   0.125083443679392   1.0000000
B2   B   0.722271608984763   0.777878095204209   0.125026968175199   1.0000000
B2   B   0.555526095005531   0.277596721945128   0.125111857601115   1.0000000
B2   B   0.888917739708489   0.277778341061366   0.125106803029160   1.0000000
B2   B   0.055569212538705   0.444473763126797   0.624944998934564   1.0000000
B2   B   0.222197189778308   0.944365914674887   0.624880862509754   1.0000000
B2   B   0.555524703497823   0.944429357006685   0.624959626645307   1.0000000
B2   B   0.388739743282735   0.444501052920484   0.624774436526278   1.0000000
B2   B   0.888919417759624   0.944475389862604   0.624915433763043   1.0000000
B2   B   0.055572993059394   0.944427542491060   0.125047805794683   1.0000000
B2   B   0.722414310474430   0.444485925242968   0.624875906710525   1.0000000
B2   B   0.388848653427772   0.944369978612120   0.125084772249731   1.0000000
B2   B   0.222133312073490   0.444480448974931   0.125132855509715   1.0000000
B2   B   0.222196558004224   0.611158216903507   0.125140295433560   1.0000000
B2   B   0.555572774759470   0.444456312066559   0.124897188445244   1.0000000
B2   B   0.722222735437071   0.944474457491549   0.125109231471619   1.0000000
B2   B   0.889007088704758   0.444479421960272   0.125052748814738   1.0000000
B2   B   0.055631930197425   0.611155662939015   0.624880977859425   1.0000000
B2   B   0.222140636659240   0.110993397567803   0.624894956116424   1.0000000
B2   B   0.722410369783706   0.611254811457427   0.624887115378373   1.0000000
B2   B   0.555523638295574   0.110993781623301   0.624931607867548   1.0000000
B2   B   0.888887453619551   0.111110745555367   0.624939168468412   1.0000000
B2   B   0.444099137662019   0.384510594072839   0.375000000000000   1.0000000


