data_1
_audit_creation_method   'vasp2cif'
_cell_length_a    17.52789999999977
_cell_length_b    17.52789999999977
_cell_length_c    15.0
_cell_angle_alpha    90.0
_cell_angle_beta    90.0
_cell_angle_gamma    119.99999999999916

_symmetry_space_group_name_H-M    'P 1'
loop_
_atom_site_label
_atom_site_type_symbol
_atom_site_fract_x
_atom_site_fract_y
_atom_site_fract_z
_atom_site_occupancy
B2   B   0.905331112865426   0.953268948267677   0.125454572918834   1.0000000
B2   B   0.905032027217267   0.095775952199524   0.122219023932672   1.0000000
B2   B   0.904649363237120   0.238234448647361   0.119417598755540   1.0000000
B2   B   0.903909783022719   0.380737552424719   0.116907092656781   1.0000000
B2   B   0.905060733629767   0.523600489878945   0.114887841211249   1.0000000
B2   B   0.906489067294203   0.668358697165409   0.117037947463274   1.0000000
B2   B   0.906103458197819   0.810960926445993   0.124435951685200   1.0000000
B2   B   0.047974568291032   0.952682938104672   0.127393636874217   1.0000000
B2   B   0.047996079894716   0.095631524206624   0.122914622743572   1.0000000
B2   B   0.047871476089234   0.238234448647361   0.119417598755540   1.0000000
B2   B   0.047487239759313   0.380689800395622   0.120996956264285   1.0000000
B2   B   0.047366547452036   0.523315958027155   0.123898888011588   1.0000000
B2   B   0.047478059913935   0.666239043947222   0.125556044180278   1.0000000
B2   B   0.048032856740136   0.809636986686506   0.128073140208997   1.0000000
B2   B   0.189995957138230   0.951433716668205   0.127955687306319   1.0000000
B2   B   0.190153485058950   0.094561460326666   0.124097325024863   1.0000000
B2   B   0.190967718539994   0.238065824547725   0.115929434689392   1.0000000
B2   B   0.191114160081007   0.380737552424719   0.116907092656781   1.0000000
B2   B   0.190234089697121   0.523315958027155   0.123898888011588   1.0000000
B2   B   0.190142970240004   0.666001261358005   0.126483056513408   1.0000000
B2   B   0.190120242169172   0.808710923871551   0.127523595148666   1.0000000
B2   B   0.332636151741347   0.950987624358696   0.127777277932225   1.0000000
B2   B   0.331833072525441   0.092835495834940   0.124082224795160   1.0000000
B2   B   0.331887241102649   0.235428442379160   0.107687545487210   1.0000000
B2   B   0.334219937371664   0.380398145412649   0.095177640549323   1.0000000
B2   B   0.332826146928163   0.523600489878945   0.114887841211249   1.0000000
B2   B   0.333045663156298   0.666239043947222   0.125556044180278   1.0000000
B2   B   0.332875360825369   0.808710923871551   0.127523595148666   1.0000000
B2   B   0.475722438652973   0.951433716668205   0.127955687306319   1.0000000
B2   B   0.475288813989501   0.092835495834940   0.124082224795160   1.0000000
B2   B   0.472176174270672   0.230065957861349   0.100871789119921   1.0000000
B2   B   0.464404907083953   0.358406906970664   0.043819601046273   1.0000000
B2   B   0.469445852503846   0.533719461785999   0.064288698752264   1.0000000
B2   B   0.476156020550206   0.668358697165409   0.117037947463274   1.0000000
B2   B   0.475888809069374   0.809636986686506   0.128073140208997   1.0000000
B2   B   0.618993048936638   0.952682938104672   0.127393636874217   1.0000000
B2   B   0.618694365946730   0.094561460326666   0.124097325024863   1.0000000
B2   B   0.617827591956512   0.235428442379160   0.107687545487210   1.0000000
B2   B   0.608288390566713   0.358406906970664   0.043819601046273   1.0000000
B2   B   0.640591413157267   0.566896435635535   0.007046932975506   1.0000000
B2   B   0.619602827492407   0.672377465031836   0.094201060413447   1.0000000
B2   B   0.619143858927167   0.810960926445993   0.124435951685200   1.0000000
B2   B   0.762224226081244   0.953268948267677   0.125454572918834   1.0000000
B2   B   0.761921834990915   0.095631524206624   0.122914622743572   1.0000000
B2   B   0.761384496686730   0.238065824547725   0.115929434689392   1.0000000
B2   B   0.760464598720986   0.380398145412649   0.095177640549323   1.0000000
B2   B   0.778559999961153   0.533719461785999   0.064288698752264   1.0000000
B2   B   0.767061028218421   0.672377465031836   0.094201060413447   1.0000000
B2   B   0.762687112919650   0.811087835160293   0.119910632984578   1.0000000
N2   N   0.952978223494846   0.905708955054131   0.127193842518686   1.0000000
N2   N   0.952756797653457   0.048277165265205   0.123650239562295   1.0000000
N2   N   0.952565341328537   0.190841488127077   0.120130437549172   1.0000000
N2   N   0.951996953639465   0.333334416840728   0.119429779357013   1.0000000
N2   N   0.952171897683101   0.475830269621099   0.120519872967037   1.0000000
N2   N   0.952481178873029   0.619047769737570   0.120947984939534   1.0000000
N2   N   0.953167020977624   0.762842389816022   0.126153716605160   1.0000000
N2   N   0.095102894911079   0.904560989360832   0.128416077173711   1.0000000
N2   N   0.095186710534200   0.047640298856216   0.125381728437290   1.0000000
N2   N   0.095686778527984   0.190800419521089   0.119715675363622   1.0000000
N2   N   0.095624946175263   0.333334416840728   0.119429779357013   1.0000000
N2   N   0.095031845819200   0.475777920220409   0.123523238048200   1.0000000
N2   N   0.094950623386431   0.618480409856055   0.125895196734660   1.0000000
N2   N   0.095041761604712   0.761435664401745   0.127536644296306   1.0000000
N2   N   0.237515278991516   0.903723445945502   0.127820621708068   1.0000000
N2   N   0.237052075242566   0.046238682024104   0.126666860169927   1.0000000
N2   N   0.237516770948105   0.189481791960112   0.118402146554431   1.0000000
N2   N   0.239487781157209   0.333523770739255   0.110501979121388   1.0000000
N2   N   0.237945854912006   0.475830269621099   0.120519872967037   1.0000000
N2   N   0.237815557886627   0.618480409856055   0.125895196734660   1.0000000
N2   N   0.237703334748872   0.761120898080748   0.126959854368330   1.0000000
N2   N   0.380493938370989   0.903723445945502   0.127820621708068   1.0000000
N2   N   0.380047059377382   0.045806635781766   0.126805524239415   1.0000000
N2   N   0.378545882374198   0.186871980440088   0.114636469481127   1.0000000
N2   N   0.378691377205989   0.328429337148826   0.085105367396423   1.0000000
N2   N   0.380102857980653   0.477212899932901   0.096088590052297   1.0000000
N2   N   0.380854073837554   0.619047769737570   0.120947984939534   1.0000000
N2   N   0.380679674214029   0.761435664401745   0.127536644296306   1.0000000
N2   N   0.523743865866741   0.904560989360832   0.128416077173711   1.0000000
N2   N   0.523474089754544   0.046238682024104   0.126666860169927   1.0000000
N2   N   0.522613581038897   0.186871980440088   0.114636469481127   1.0000000
N2   N   0.515213756497410   0.316140030021813   0.062854794550326   1.0000000
N2   N   0.523832389091751   0.623225346926780   0.095553735497283   1.0000000
N2   N   0.523962851811412   0.762842389816022   0.126153716605160   1.0000000
N2   N   0.667018214532270   0.905708955054131   0.127193842518686   1.0000000
N2   N   0.666741071295007   0.047640298856216   0.125381728437290   1.0000000
N2   N   0.666252503985007   0.189481791960112   0.118402146554431   1.0000000
N2   N   0.664025442915836   0.328429337148826   0.085105367396423   1.0000000
N2   N   0.673859207574274   0.633430932176559   0.069617587187466   1.0000000
N2   N   0.667134502826848   0.764148410167060   0.117054787091178   1.0000000
N2   N   0.810035882079617   0.905784281185241   0.125163520650503   1.0000000
N2   N   0.809809562141751   0.048277165265205   0.123650239562295   1.0000000
N2   N   0.809401123967099   0.190800419521089   0.119715675363622   1.0000000
N2   N   0.808323472556054   0.333523770739255   0.110501979121388   1.0000000
N2   N   0.811397524926257   0.477212899932901   0.096088590052297   1.0000000
N2   N   0.813680440808035   0.623225346926780   0.095553735497283   1.0000000
N2   N   0.811301390313204   0.764148410167060   0.117054787091178   1.0000000
Al2   Al   0.514437428544099   0.475418636618208   0.972388221892118   1.0000000
Al2   Al   0.675268691047108   0.475418636618208   0.972388221892118   1.0000000


