data_1
_audit_creation_method   'vasp2cif'
_cell_length_a    14.93631414619966
_cell_length_b    14.936314146199727
_cell_length_c    13.341276283792837
_cell_angle_alpha    90.0
_cell_angle_beta    90.0
_cell_angle_gamma    119.99999999999984

_symmetry_space_group_name_H-M    'P 1'
loop_
_atom_site_label
_atom_site_type_symbol
_atom_site_fract_x
_atom_site_fract_y
_atom_site_fract_z
_atom_site_occupancy
C2   C   0.546473131931355   0.439903232632342   0.375000000000000   1.0000000
N2   N   0.111115627275285   0.055577577855086   0.124822493348220   1.0000000
N2   N   0.611146135322286   0.555646755127856   0.124674157689218   1.0000000
N2   N   0.444499236580314   0.055566798479277   0.124804134837625   1.0000000
N2   N   0.944425664684030   0.555532900414520   0.124843342021466   1.0000000
N2   N   0.777813515283482   0.055573424308409   0.124819498075396   1.0000000
N2   N   0.111112525262010   0.722222929297670   0.625154460776781   1.0000000
N2   N   0.444499236580314   0.722265771434373   0.625195865162375   1.0000000
N2   N   0.277781031387172   0.222230193271909   0.624831821098729   1.0000000
N2   N   0.777779163663743   0.722262616849341   0.625216500717776   1.0000000
N2   N   0.611163155767513   0.222187419516570   0.625307371308497   1.0000000
N2   N   0.944452199257350   0.222212739948820   0.625168730901855   1.0000000
N2   N   0.277809366845675   0.722231949183855   0.124841812002393   1.0000000
N2   N   0.111102111277292   0.222217722305310   0.124814628390099   1.0000000
N2   N   0.444504349775763   0.222210810572003   0.124972789507683   1.0000000
N2   N   0.611163155767513   0.722309069584272   0.124692628691503   1.0000000
N2   N   0.944425664684030   0.722226097602845   0.124843342021466   1.0000000
N2   N   0.777810832526458   0.222199194409828   0.124824331282230   1.0000000
N2   N   0.111115127904554   0.888910778202907   0.625168975981320   1.0000000
N2   N   0.444494704474098   0.888914018903713   0.625157983329769   1.0000000
N2   N   0.277781031387172   0.388884171448593   0.624831821098729   1.0000000
N2   N   0.611146135322286   0.388832713527760   0.625325842310782   1.0000000
N2   N   0.777810832526458   0.888944971449957   0.625175668717771   1.0000000
N2   N   0.944446686494710   0.388863644722125   0.625145517787078   1.0000000
N2   N   0.111115627275285   0.388871382753527   0.124822493348220   1.0000000
N2   N   0.277809366845675   0.888910750995149   0.124841812002393   1.0000000
N2   N   0.611163879060950   0.888940668799441   0.124821557903955   1.0000000
N2   N   0.444436445051085   0.388884889192207   0.124879492407380   1.0000000
N2   N   0.944446686494710   0.888916375105914   0.124854482212922   1.0000000
N2   N   0.777779163663743   0.388849880147732   0.124783499282224   1.0000000
N2   N   0.277807365426014   0.555560782523426   0.625133895980181   1.0000000
N2   N   0.111115627275285   0.055577577855086   0.625177506651780   1.0000000
N2   N   0.611146135322286   0.555646755127856   0.625325842310782   1.0000000
N2   N   0.444499236580314   0.055566798479277   0.625195865162375   1.0000000
N2   N   0.944425664684030   0.555532900414520   0.625156657978534   1.0000000
N2   N   0.111115127904554   0.555537683034976   0.124831024018680   1.0000000
N2   N   0.777813515283482   0.055573424308409   0.625180501924604   1.0000000
N2   N   0.277807365426014   0.055579916235924   0.124866104019819   1.0000000
N2   N   0.444504349775763   0.555626872537096   0.124972789507683   1.0000000
N2   N   0.777754410995822   0.555543872164579   0.124818339218260   1.0000000
N2   N   0.611163879060950   0.055556543594838   0.124821557903955   1.0000000
N2   N   0.444504349775763   0.555626872537096   0.625027210492316   1.0000000
N2   N   0.944452199257350   0.055572792641865   0.124831269098144   1.0000000
N2   N   0.277809366845675   0.722231949183855   0.625158187997607   1.0000000
N2   N   0.111102111277292   0.222217722305310   0.625185371609901   1.0000000
N2   N   0.444504349775763   0.222210810572003   0.625027210492316   1.0000000
N2   N   0.611163155767513   0.722309069584272   0.625307371308497   1.0000000
N2   N   0.944425664684030   0.722226097602845   0.625156657978534   1.0000000
N2   N   0.777810832526458   0.222199194409828   0.625175668717771   1.0000000
N2   N   0.111112525262010   0.722222929297670   0.124845539223218   1.0000000
N2   N   0.444499236580314   0.722265771434373   0.124804134837625   1.0000000
N2   N   0.277781031387172   0.222230193271909   0.125168178901271   1.0000000
N2   N   0.777779163663743   0.722262616849341   0.124783499282224   1.0000000
N2   N   0.611163155767513   0.222187419516570   0.124692628691503   1.0000000
N2   N   0.944452199257350   0.222212739948820   0.124831269098144   1.0000000
N2   N   0.111115627275285   0.388871382753527   0.625177506651780   1.0000000
N2   N   0.277809366845675   0.888910750995149   0.625158187997607   1.0000000
N2   N   0.611163879060950   0.888940668799441   0.625178442096045   1.0000000
N2   N   0.444436445051085   0.388884889192207   0.625120507592621   1.0000000
N2   N   0.944446686494710   0.888916375105914   0.625145517787078   1.0000000
N2   N   0.111115127904554   0.888910778202907   0.124831024018680   1.0000000
N2   N   0.777779163663743   0.388849880147732   0.625216500717776   1.0000000
N2   N   0.444494704474098   0.888914018903713   0.124842016670230   1.0000000
N2   N   0.277781031387172   0.388884171448593   0.125168178901271   1.0000000
N2   N   0.277807365426014   0.555560782523426   0.124866104019819   1.0000000
N2   N   0.611146135322286   0.388832713527760   0.124674157689218   1.0000000
N2   N   0.777810832526458   0.888944971449957   0.124824331282230   1.0000000
N2   N   0.944446686494710   0.388863644722125   0.124854482212922   1.0000000
N2   N   0.111115127904554   0.555537683034976   0.625168975981320   1.0000000
N2   N   0.277807365426014   0.055579916235924   0.625133895980181   1.0000000
N2   N   0.777754410995822   0.555543872164579   0.625181660781740   1.0000000
N2   N   0.611163879060950   0.055556543594838   0.625178442096045   1.0000000
N2   N   0.944452199257350   0.055572792641865   0.625168730901855   1.0000000
N2   N   0.058327519825323   0.112689525494825   0.375000000000000   1.0000000
N2   N   0.555156494313998   0.616837409353138   0.375000000000000   1.0000000
N2   N   0.388094887917943   0.106533370499910   0.375000000000000   1.0000000
N2   N   0.885595593034745   0.609464463184044   0.375000000000000   1.0000000
N2   N   0.723506998363849   0.111194724103277   0.375000000000000   1.0000000
N2   N   0.055558414358072   0.777776129242192   0.875000000000000   1.0000000
N2   N   0.388879547887222   0.777776407848599   0.875000000000000   1.0000000
N2   N   0.222224866851312   0.277779100092324   0.875000000000000   1.0000000
N2   N   0.722222901234296   0.777771701577732   0.875000000000000   1.0000000
N2   N   0.555550140805012   0.277776619257721   0.875000000000000   1.0000000
N2   N   0.888894184479268   0.277786878624224   0.875000000000000   1.0000000
N2   N   0.220449671070835   0.776891502202085   0.375000000000000   1.0000000
N2   N   0.058327519825323   0.278971327663834   0.375000000000000   1.0000000
N2   N   0.394655510029422   0.275912836689313   0.375000000000000   1.0000000
N2   N   0.555701530579330   0.780456309062282   0.375000000000000   1.0000000
N2   N   0.887345182188689   0.776946113567369   0.375000000000000   1.0000000
N2   N   0.722837774461042   0.276724422118190   0.375000000000000   1.0000000
N2   N   0.055557004120618   0.944437853432816   0.875000000000000   1.0000000
N2   N   0.388879547887222   0.944436473371959   0.875000000000000   1.0000000
N2   N   0.222219965115120   0.444450826941253   0.875000000000000   1.0000000
N2   N   0.555555420874160   0.444444377103744   0.875000000000000   1.0000000
N2   N   0.722218497547442   0.944439757650616   0.875000000000000   1.0000000
N2   N   0.888897923927095   0.444454151821264   0.875000000000000   1.0000000
N2   N   0.055641920952139   0.444662920928218   0.375000000000000   1.0000000
N2   N   0.220832947587779   0.942619690440350   0.375000000000000   1.0000000
N2   N   0.555743721838540   0.944538527585934   0.375000000000000   1.0000000
N2   N   0.394655510029422   0.452076006673445   0.375000000000000   1.0000000
N2   N   0.890341492789726   0.945604856922742   0.375000000000000   1.0000000
N2   N   0.717863992853803   0.441933791942805   0.375000000000000   1.0000000
N2   N   0.222214555758985   0.611115363714862   0.875000000000000   1.0000000
N2   N   0.055559627027686   0.111108682477153   0.875000000000000   1.0000000
N2   N   0.555550140805012   0.611106854880626   0.875000000000000   1.0000000
N2   N   0.388879754019853   0.111100673070697   0.875000000000000   1.0000000
N2   N   0.888903356681698   0.611118345007521   0.875000000000000   1.0000000
N2   N   0.053494665931266   0.610371063543615   0.375000000000000   1.0000000
N2   N   0.722218497547442   0.111112073230161   0.875000000000000   1.0000000
N2   N   0.224098232328304   0.111348885660575   0.375000000000000   1.0000000
N2   N   0.388094887917943   0.614894850751375   0.375000000000000   1.0000000
N2   N   0.717863992853803   0.609263534244334   0.375000000000000   1.0000000
N2   N   0.555701530579330   0.108578554850383   0.375000000000000   1.0000000
N2   N   0.388879754019853   0.611112414282499   0.875000000000000   1.0000000
N2   N   0.891031902982352   0.112182618157847   0.375000000000000   1.0000000
N2   N   0.222215819044546   0.777774576188941   0.875000000000000   1.0000000
N2   N   0.055559627027686   0.277784277883869   0.875000000000000   1.0000000
N2   N   0.388885926342903   0.277772115619873   0.875000000000000   1.0000000
N2   N   0.555546298930292   0.777772566036125   0.875000000000000   1.0000000
N2   N   0.888897923927095   0.777777105439165   0.875000000000000   1.0000000
N2   N   0.722222901234296   0.277784532989899   0.875000000000000   1.0000000
N2   N   0.053494665931266   0.776456935720986   0.375000000000000   1.0000000
N2   N   0.387882109657888   0.778608586757744   0.375000000000000   1.0000000
N2   N   0.227247234978139   0.280290284155737   0.375000000000000   1.0000000
N2   N   0.722837774461042   0.779446685676188   0.375000000000000   1.0000000
N2   N   0.555156494313998   0.271652418294196   0.375000000000000   1.0000000
N2   N   0.890341492789726   0.278069969200320   0.375000000000000   1.0000000
N2   N   0.055557004120618   0.444452484021131   0.875000000000000   1.0000000
N2   N   0.222214555758985   0.944432525377458   0.875000000000000   1.0000000
N2   N   0.555545352931013   0.944439343132172   0.875000000000000   1.0000000
N2   N   0.388885926342903   0.444447144056366   0.875000000000000   1.0000000
N2   N   0.888894184479268   0.944440639188381   0.875000000000000   1.0000000
N2   N   0.055641920952139   0.944312333357249   0.375000000000000   1.0000000
N2   N   0.722230497268443   0.444453013860674   0.875000000000000   1.0000000
N2   N   0.387882109657888   0.942606856233480   0.375000000000000   1.0000000
N2   N   0.224098232328304   0.446082680001064   0.375000000000000   1.0000000
N2   N   0.220832947587779   0.611546590480764   0.375000000000000   1.0000000
N2   N   0.723506998363849   0.945645607593908   0.375000000000000   1.0000000
N2   N   0.887345182188689   0.443732401954657   0.375000000000000   1.0000000
N2   N   0.055558414358072   0.611115618449216   0.875000000000000   1.0000000
N2   N   0.222219965115120   0.111102471507202   0.875000000000000   1.0000000
N2   N   0.722230497268443   0.611110816741104   0.875000000000000   1.0000000
N2   N   0.555546298930292   0.111107066227502   0.875000000000000   1.0000000
N2   N   0.888893146383956   0.111113239858649   0.875000000000000   1.0000000
B2   B   0.113824313613895   0.056776885464627   0.375000000000000   1.0000000
B2   B   0.602268225230810   0.553922675199359   0.375000000000000   1.0000000
B2   B   0.444124797216778   0.053446323112959   0.375000000000000   1.0000000
B2   B   0.941906187072899   0.554680673240578   0.375000000000000   1.0000000
B2   B   0.779677943219246   0.056505638276291   0.375000000000000   1.0000000
B2   B   0.111108880088323   0.722221106710827   0.875000000000000   1.0000000
B2   B   0.444420436262881   0.722143567704058   0.875000000000000   1.0000000
B2   B   0.277878256191340   0.222302610847034   0.875000000000000   1.0000000
B2   B   0.777718660917912   0.722135076244696   0.875000000000000   1.0000000
B2   B   0.611050663118100   0.222281953049217   0.875000000000000   1.0000000
B2   B   0.944495108593462   0.222257714367515   0.875000000000000   1.0000000
B2   B   0.276668826532231   0.722137959612194   0.375000000000000   1.0000000
B2   B   0.117074053441028   0.225203693387178   0.375000000000000   1.0000000
B2   B   0.443223164405018   0.218900966983354   0.375000000000000   1.0000000
B2   B   0.611170072687113   0.724757627971805   0.375000000000000   1.0000000
B2   B   0.941906187072899   0.720558847165656   0.375000000000000   1.0000000
B2   B   0.779001854636108   0.222455835562649   0.375000000000000   1.0000000
B2   B   0.111130503219086   0.888909930758766   0.875000000000000   1.0000000
B2   B   0.444418998323569   0.888876165828449   0.875000000000000   1.0000000
B2   B   0.277878256191340   0.388908978677635   0.875000000000000   1.0000000
B2   B   0.611027934128977   0.388909631100849   0.875000000000000   1.0000000
B2   B   0.777756058972515   0.888829877220637   0.875000000000000   1.0000000
B2   B   0.944454395920904   0.388915671271030   0.875000000000000   1.0000000
B2   B   0.113824313613895   0.390380761482597   0.375000000000000   1.0000000
B2   B   0.276668826532231   0.887864200253366   0.375000000000000   1.0000000
B2   B   0.611896937289092   0.890135556166198   0.375000000000000   1.0000000
B2   B   0.944415980723775   0.888573824533535   0.375000000000000   1.0000000
B2   B   0.775041506055475   0.388097672627068   0.375000000000000   1.0000000
B2   B   0.277814846692805   0.555522821988913   0.875000000000000   1.0000000
B2   B   0.111188906706517   0.055607825171872   0.875000000000000   1.0000000
B2   B   0.611027934128977   0.555451636361456   0.875000000000000   1.0000000
B2   B   0.444420436262881   0.055610201892159   0.875000000000000   1.0000000
B2   B   0.944418745246380   0.555554177789968   0.875000000000000   1.0000000
B2   B   0.110064183744112   0.555544208855509   0.375000000000000   1.0000000
B2   B   0.777774056883826   0.055553695108581   0.875000000000000   1.0000000
B2   B   0.277791717683548   0.054502524166614   0.375000000000000   1.0000000
B2   B   0.443223164405018   0.557655530755000   0.375000000000000   1.0000000
B2   B   0.772529284282590   0.552931308807962   0.375000000000000   1.0000000
B2   B   0.611896937289092   0.055094714456222   0.375000000000000   1.0000000
B2   B   0.444433534072678   0.555463142703959   0.875000000000000   1.0000000
B2   B   0.947405386025902   0.057185870290029   0.375000000000000   1.0000000
B2   B   0.277779403608886   0.722201117203687   0.875000000000000   1.0000000
B2   B   0.111224083428583   0.222278708380956   0.875000000000000   1.0000000
B2   B   0.444433534072678   0.222303724702054   0.875000000000000   1.0000000
B2   B   0.611050663118100   0.722102043402211   0.875000000000000   1.0000000
B2   B   0.944418745246380   0.722197900789749   0.875000000000000   1.0000000
B2   B   0.777756058972515   0.222259515085207   0.875000000000000   1.0000000
B2   B   0.109270474241171   0.721301903787250   0.375000000000000   1.0000000
B2   B   0.444124797216778   0.724011807437154   0.375000000000000   1.0000000
B2   B   0.287101156997728   0.226810080891452   0.375000000000000   1.0000000
B2   B   0.775041506055475   0.720277166761735   0.375000000000000   1.0000000
B2   B   0.611170072687113   0.219745778048636   0.375000000000000   1.0000000
B2   B   0.947405386025902   0.223552849069209   0.375000000000000   1.0000000
B2   B   0.111188906706517   0.388914414867973   0.875000000000000   1.0000000
B2   B   0.277779403608886   0.888911619738528   0.875000000000000   1.0000000
B2   B   0.611072301895224   0.888832608509819   0.875000000000000   1.0000000
B2   B   0.444457868369322   0.388895600851325   0.875000000000000   1.0000000
B2   B   0.944454395920904   0.888872057983202   0.875000000000000   1.0000000
B2   B   0.110064183744112   0.887853308221932   0.375000000000000   1.0000000
B2   B   0.777718660917912   0.388916918006545   0.875000000000000   1.0000000
B2   B   0.444181668825626   0.888757501079477   0.375000000000000   1.0000000
B2   B   0.287101156997728   0.393624409439605   0.375000000000000   1.0000000
B2   B   0.277791717683548   0.556622526850270   0.375000000000000   1.0000000
B2   B   0.602268225230810   0.381678883364779   0.375000000000000   1.0000000
B2   B   0.779001854636108   0.889879352406788   0.375000000000000   1.0000000
B2   B   0.944415980723775   0.389175489523568   0.375000000000000   1.0000000
B2   B   0.111130503219086   0.555553905793648   0.875000000000000   1.0000000
B2   B   0.277814846692805   0.055625358037227   0.875000000000000   1.0000000
B2   B   0.777702487957175   0.555517910645255   0.875000000000000   1.0000000
B2   B   0.611072301895224   0.055573026718733   0.875000000000000   1.0000000
B2   B   0.944495108593462   0.055570727559283   0.875000000000000   1.0000000
B2   B   0.055722468195551   0.111262410804182   0.125321263431099   1.0000000
B2   B   0.555463831637565   0.610851582041506   0.125814981039550   1.0000000
B2   B   0.389056474680764   0.111488851870280   0.125641615652061   1.0000000
B2   B   0.888627228149203   0.610980280741273   0.125278669674464   1.0000000
B2   B   0.722230955059214   0.111136050275844   0.125188456454750   1.0000000
B2   B   0.055513808108851   0.777809845308270   0.624804181510746   1.0000000
B2   B   0.388997733515172   0.777727397594599   0.624764702944502   1.0000000
B2   B   0.222541983057630   0.277937658195483   0.623922811855604   1.0000000
B2   B   0.722101409773228   0.777661309950947   0.624734702873049   1.0000000
B2   B   0.555463831637565   0.277945582929394   0.624185018960450   1.0000000
B2   B   0.888895215044256   0.277752835329165   0.624782391646800   1.0000000
B2   B   0.222294566027495   0.777813949680416   0.125192093603350   1.0000000
B2   B   0.055722468195551   0.277793390724704   0.125321263431099   1.0000000
B2   B   0.389137708496144   0.278170945999862   0.127304001672756   1.0000000
B2   B   0.555584472910363   0.777662428240418   0.125278847571000   1.0000000
B2   B   0.888737454477804   0.777721346264887   0.125246555694180   1.0000000
B2   B   0.722101409773228   0.277773433155618   0.125265297126951   1.0000000
B2   B   0.055628181954026   0.944602632050840   0.624751149230140   1.0000000
B2   B   0.388997733515172   0.944603669253909   0.624764702944502   1.0000000
B2   B   0.222476417718229   0.444331080968956   0.624277802094922   1.0000000
B2   B   0.555250961450495   0.444292147391912   0.622304010539770   1.0000000
B2   B   0.722230955059214   0.944428238116705   0.624811543545249   1.0000000
B2   B   0.888737454477804   0.444349441546253   0.624753444305821   1.0000000
B2   B   0.055628181954026   0.444358883236514   0.125248850769860   1.0000000
B2   B   0.222349641276712   0.944685705537939   0.125272176635805   1.0000000
B2   B   0.555610566044233   0.944471949688781   0.125208483709664   1.0000000
B2   B   0.389137708496144   0.444300095829617   0.127304001672756   1.0000000
B2   B   0.888895215044256   0.944475713048426   0.125217608353200   1.0000000
B2   B   0.721831810400373   0.444286234334557   0.125524977786569   1.0000000
B2   B   0.222349641276712   0.610997269072109   0.624727823364195   1.0000000
B2   B   0.055722468195551   0.111262410804182   0.624678736568901   1.0000000
B2   B   0.555463831637565   0.610851582041506   0.624185018960450   1.0000000
B2   B   0.389056474680764   0.111488851870280   0.624358384347940   1.0000000
B2   B   0.888627228149203   0.610980280741273   0.624721330325536   1.0000000
B2   B   0.055513808108851   0.611037296133915   0.125195818489254   1.0000000
B2   B   0.722230955059214   0.111136050275844   0.624811543545249   1.0000000
B2   B   0.222476417718229   0.111478670082609   0.125722197905078   1.0000000
B2   B   0.389056474680764   0.610900956143828   0.125641615652061   1.0000000
B2   B   0.721831810400373   0.610878909399152   0.125524977786569   1.0000000
B2   B   0.555584472910363   0.111255378003281   0.125278847571000   1.0000000
B2   B   0.389056474680764   0.610900956143828   0.624358384347940   1.0000000
B2   B   0.888953877368277   0.111143605350809   0.125194228247084   1.0000000
B2   B   0.222294566027495   0.777813949680416   0.624807906396649   1.0000000
B2   B   0.055722468195551   0.277793390724704   0.624678736568901   1.0000000
B2   B   0.389137708496144   0.278170945999862   0.622695998327244   1.0000000
B2   B   0.555584472910363   0.777662428240418   0.624721152429000   1.0000000
B2   B   0.888737454477804   0.777721346264887   0.624753444305821   1.0000000
B2   B   0.722101409773228   0.277773433155618   0.624734702873049   1.0000000
B2   B   0.055513808108851   0.777809845308270   0.125195818489254   1.0000000
B2   B   0.388997733515172   0.777727397594599   0.125235297055498   1.0000000
B2   B   0.222541983057630   0.277937658195483   0.126077188144396   1.0000000
B2   B   0.722101409773228   0.777661309950947   0.125265297126951   1.0000000
B2   B   0.555463831637565   0.277945582929394   0.125814981039550   1.0000000
B2   B   0.888895215044256   0.277752835329165   0.125217608353200   1.0000000
B2   B   0.055628181954026   0.444358883236514   0.624751149230140   1.0000000
B2   B   0.222349641276712   0.944685705537939   0.624727823364195   1.0000000
B2   B   0.555610566044233   0.944471949688781   0.624791516290337   1.0000000
B2   B   0.389137708496144   0.444300095829617   0.622695998327244   1.0000000
B2   B   0.888895215044256   0.944475713048426   0.624782391646800   1.0000000
B2   B   0.055628181954026   0.944602632050840   0.125248850769860   1.0000000
B2   B   0.721831810400373   0.444286234334557   0.624475022213431   1.0000000
B2   B   0.388997733515172   0.944603669253909   0.125235297055498   1.0000000
B2   B   0.222476417718229   0.444331080968956   0.125722197905078   1.0000000
B2   B   0.222349641276712   0.610997269072109   0.125272176635805   1.0000000
B2   B   0.555250961450495   0.444292147391912   0.127695989460230   1.0000000
B2   B   0.722230955059214   0.944428238116705   0.125188456454750   1.0000000
B2   B   0.888737454477804   0.444349441546253   0.125246555694180   1.0000000
B2   B   0.055513808108851   0.611037296133915   0.624804181510746   1.0000000
B2   B   0.222476417718229   0.111478670082609   0.624277802094922   1.0000000
B2   B   0.721831810400373   0.610878909399152   0.624475022213431   1.0000000
B2   B   0.555584472910363   0.111255378003281   0.624721152429000   1.0000000
B2   B   0.888953877368277   0.111143605350809   0.624805771752917   1.0000000


