data_1
_audit_creation_method   'vasp2cif'
_cell_length_a    14.93631414619966
_cell_length_b    14.936314146199727
_cell_length_c    13.341276283792837
_cell_angle_alpha    90.0
_cell_angle_beta    90.0
_cell_angle_gamma    119.99999999999984

_symmetry_space_group_name_H-M    'P 1'
loop_
_atom_site_label
_atom_site_type_symbol
_atom_site_fract_x
_atom_site_fract_y
_atom_site_fract_z
_atom_site_occupancy
Al2   Al   0.468177283652214   0.400755308492771   0.375000000000000   1.0000000
N2   N   0.111151832140458   0.055570221163915   0.124921884208043   1.0000000
N2   N   0.611183294630627   0.555610661643030   0.126117936093961   1.0000000
N2   N   0.444455715601516   0.055535254490059   0.124966111615164   1.0000000
N2   N   0.944491473316102   0.555579138958318   0.125181748995791   1.0000000
N2   N   0.777786474058006   0.055559903695671   0.125128282316654   1.0000000
N2   N   0.111141311277867   0.722237322305599   0.624871502229071   1.0000000
N2   N   0.444455715601516   0.722253794444791   0.625033888384837   1.0000000
N2   N   0.277844371841923   0.222243662252918   0.624653928609804   1.0000000
N2   N   0.777828036033155   0.722248311138229   0.624796229200450   1.0000000
N2   N   0.611124588820325   0.222214080542166   0.624864516673687   1.0000000
N2   N   0.944477296637729   0.222240598298605   0.624887802374414   1.0000000
N2   N   0.277793213070137   0.722238300137977   0.125120827896794   1.0000000
N2   N   0.111172249057871   0.222252791195600   0.124964814803051   1.0000000
N2   N   0.444497141745222   0.222215149659203   0.125553067894324   1.0000000
N2   N   0.611124588820325   0.722243841611488   0.125135483326314   1.0000000
N2   N   0.944491473316102   0.722245667691119   0.125181748995791   1.0000000
N2   N   0.777793137010157   0.222234079226485   0.125143904149333   1.0000000
N2   N   0.111141992705888   0.888899568029352   0.624888889152629   1.0000000
N2   N   0.444448731393020   0.888891032363174   0.624884565783653   1.0000000
N2   N   0.277844371841923   0.388934042922334   0.624653928609804   1.0000000
N2   N   0.611183294630627   0.388905966320926   0.623882063906039   1.0000000
N2   N   0.777793137010157   0.888892391117000   0.624856095850666   1.0000000
N2   N   0.944485886253670   0.388908617167436   0.624883162695172   1.0000000
N2   N   0.111151832140458   0.388914944309872   0.124921884208043   1.0000000
N2   N   0.277793213070137   0.888888246265490   0.125120827896794   1.0000000
N2   N   0.611111576199174   0.888897705928088   0.125103919934789   1.0000000
N2   N   0.444630644849603   0.388981989091466   0.130720888344063   1.0000000
N2   N   0.944485886253670   0.888910602419562   0.125116837304828   1.0000000
N2   N   0.777828036033155   0.388913058228254   0.125203770799549   1.0000000
N2   N   0.277805032038956   0.555588030914798   0.625025092615502   1.0000000
N2   N   0.111151832140458   0.055570221163915   0.625078115791958   1.0000000
N2   N   0.611183294630627   0.555610661643030   0.623882063906039   1.0000000
N2   N   0.444455715601516   0.055535254490059   0.625033888384837   1.0000000
N2   N   0.944491473316102   0.555579138958318   0.624818251004210   1.0000000
N2   N   0.111141992705888   0.555575758009862   0.125111110847370   1.0000000
N2   N   0.777786474058006   0.055559903695671   0.624871717683346   1.0000000
N2   N   0.277805032038956   0.055550334457495   0.124974907384498   1.0000000
N2   N   0.444497141745222   0.555615325419355   0.125553067894324   1.0000000
N2   N   0.777831380555681   0.555582356944508   0.125458251204484   1.0000000
N2   N   0.611111576199174   0.055547203604416   0.125103919934789   1.0000000
N2   N   0.444497141745222   0.555615325419355   0.624446932105676   1.0000000
N2   N   0.944477296637729   0.055570031672460   0.125112197625587   1.0000000
N2   N   0.277793213070137   0.722238300137977   0.624879172103205   1.0000000
N2   N   0.111172249057871   0.222252791195600   0.625035185196949   1.0000000
N2   N   0.444497141745222   0.222215149659203   0.624446932105676   1.0000000
N2   N   0.611124588820325   0.722243841611488   0.624864516673687   1.0000000
N2   N   0.944491473316102   0.722245667691119   0.624818251004210   1.0000000
N2   N   0.777793137010157   0.222234079226485   0.624856095850666   1.0000000
N2   N   0.111141311277867   0.722237322305599   0.125128497770928   1.0000000
N2   N   0.444455715601516   0.722253794444791   0.124966111615164   1.0000000
N2   N   0.277844371841923   0.222243662252918   0.125346071390196   1.0000000
N2   N   0.777828036033155   0.722248311138229   0.125203770799549   1.0000000
N2   N   0.611124588820325   0.222214080542166   0.125135483326314   1.0000000
N2   N   0.944477296637729   0.222240598298605   0.125112197625587   1.0000000
N2   N   0.111151832140458   0.388914944309872   0.625078115791958   1.0000000
N2   N   0.277793213070137   0.888888246265490   0.624879172103205   1.0000000
N2   N   0.611111576199174   0.888897705928088   0.624896080065212   1.0000000
N2   N   0.444630644849603   0.388981989091466   0.619279111655937   1.0000000
N2   N   0.944485886253670   0.888910602419562   0.624883162695172   1.0000000
N2   N   0.111141992705888   0.888899568029352   0.125111110847370   1.0000000
N2   N   0.777828036033155   0.388913058228254   0.624796229200450   1.0000000
N2   N   0.444448731393020   0.888891032363174   0.125115434216347   1.0000000
N2   N   0.277844371841923   0.388934042922334   0.125346071390196   1.0000000
N2   N   0.277805032038956   0.555588030914798   0.124974907384498   1.0000000
N2   N   0.611183294630627   0.388905966320926   0.126117936093961   1.0000000
N2   N   0.777793137010157   0.888892391117000   0.125143904149333   1.0000000
N2   N   0.944485886253670   0.388908617167436   0.125116837304828   1.0000000
N2   N   0.111141992705888   0.555575758009862   0.624888889152629   1.0000000
N2   N   0.277805032038956   0.055550334457495   0.625025092615502   1.0000000
N2   N   0.777831380555681   0.555582356944508   0.624541748795517   1.0000000
N2   N   0.611111576199174   0.055547203604416   0.624896080065212   1.0000000
N2   N   0.944477296637729   0.055570031672460   0.624887802374414   1.0000000
N2   N   0.055284521034361   0.110964093224659   0.375000000000000   1.0000000
N2   N   0.554840887452317   0.609662093292486   0.375000000000000   1.0000000
N2   N   0.387781451885063   0.106902106592922   0.375000000000000   1.0000000
N2   N   0.888757642925734   0.611045488129537   0.375000000000000   1.0000000
N2   N   0.722184156640313   0.111060486899790   0.375000000000000   1.0000000
N2   N   0.055550478472852   0.777778536967624   0.875000000000000   1.0000000
N2   N   0.388895944201289   0.777778619774403   0.875000000000000   1.0000000
N2   N   0.222219792591008   0.277776562962172   0.875000000000000   1.0000000
N2   N   0.722227296799101   0.777782981595422   0.875000000000000   1.0000000
N2   N   0.555560591930077   0.277783960624419   0.875000000000000   1.0000000
N2   N   0.888892636459104   0.277776744901450   0.875000000000000   1.0000000
N2   N   0.221333126241639   0.777333229787488   0.375000000000000   1.0000000
N2   N   0.055284521034361   0.277653761143037   0.375000000000000   1.0000000
N2   N   0.385929215926714   0.268252497753977   0.375000000000000   1.0000000
N2   N   0.555501602255004   0.777799087525759   0.375000000000000   1.0000000
N2   N   0.888473705487761   0.777533713738588   0.375000000000000   1.0000000
N2   N   0.722024893615819   0.277754297639569   0.375000000000000   1.0000000
N2   N   0.055552111214483   0.944446179345164   0.875000000000000   1.0000000
N2   N   0.388895944201289   0.944450657760221   0.875000000000000   1.0000000
N2   N   0.222220321854517   0.444436843272927   0.875000000000000   1.0000000
N2   N   0.555544019803300   0.444438676568314   0.875000000000000   1.0000000
N2   N   0.722227118263567   0.944448165408534   0.875000000000000   1.0000000
N2   N   0.888888704478042   0.444440106713309   0.875000000000000   1.0000000
N2   N   0.054552227415109   0.444338381407288   0.375000000000000   1.0000000
N2   N   0.221042030592362   0.942998640378820   0.375000000000000   1.0000000
N2   N   0.555532900092320   0.944433116712824   0.375000000000000   1.0000000
N2   N   0.385929215926714   0.451010051506074   0.375000000000000   1.0000000
N2   N   0.888586943875073   0.944349094520941   0.375000000000000   1.0000000
N2   N   0.722560223656154   0.445157406216774   0.375000000000000   1.0000000
N2   N   0.222222817786989   0.611104781414352   0.875000000000000   1.0000000
N2   N   0.055552926096778   0.111110875116300   0.875000000000000   1.0000000
N2   N   0.555560591930077   0.611109964638994   0.875000000000000   1.0000000
N2   N   0.388897050764116   0.111124786303067   0.875000000000000   1.0000000
N2   N   0.888882113010163   0.611107723171752   0.875000000000000   1.0000000
N2   N   0.054750948267887   0.610861560979533   0.375000000000000   1.0000000
N2   N   0.722227118263567   0.111112286188367   0.875000000000000   1.0000000
N2   N   0.220438966080429   0.108853637857620   0.375000000000000   1.0000000
N2   N   0.387781451885063   0.614212678625483   0.375000000000000   1.0000000
N2   N   0.722560223656154   0.610736150772715   0.375000000000000   1.0000000
N2   N   0.555501602255004   0.111035848062580   0.375000000000000   1.0000000
N2   N   0.388897050764116   0.611105597794392   0.875000000000000   1.0000000
N2   N   0.888713498848590   0.111023416090966   0.375000000000000   1.0000000
N2   N   0.222222542392251   0.777777937862793   0.875000000000000   1.0000000
N2   N   0.055552926096778   0.277775384313813   0.875000000000000   1.0000000
N2   N   0.388897194756726   0.277796165147291   0.875000000000000   1.0000000
N2   N   0.555563029189233   0.777781399592196   0.875000000000000   1.0000000
N2   N   0.888888704478042   0.777781931098069   0.875000000000000   1.0000000
N2   N   0.722227296799101   0.277777648537016   0.875000000000000   1.0000000
N2   N   0.054750948267887   0.777222720621690   0.375000000000000   1.0000000
N2   N   0.388342429502287   0.778449753964012   0.375000000000000   1.0000000
N2   N   0.222578621704183   0.277955977518759   0.375000000000000   1.0000000
N2   N   0.722024893615819   0.777603929309586   0.375000000000000   1.0000000
N2   N   0.554840887452317   0.278512127493167   0.375000000000000   1.0000000
N2   N   0.888586943875073   0.277571182687469   0.375000000000000   1.0000000
N2   N   0.055552111214483   0.444439265202646   0.875000000000000   1.0000000
N2   N   0.222222817786989   0.944451369705973   0.875000000000000   1.0000000
N2   N   0.555561520502420   0.944447426917874   0.875000000000000   1.0000000
N2   N   0.388897194756726   0.444434362942772   0.875000000000000   1.0000000
N2   N   0.888892636459104   0.944449224890990   0.875000000000000   1.0000000
N2   N   0.054552227415109   0.943547179341149   0.375000000000000   1.0000000
N2   N   0.722218489377198   0.444441326171502   0.875000000000000   1.0000000
N2   N   0.388342429502287   0.943226008871611   0.375000000000000   1.0000000
N2   N   0.220438966080429   0.444918661556145   0.375000000000000   1.0000000
N2   N   0.221042030592362   0.611376723546878   0.375000000000000   1.0000000
N2   N   0.722184156640313   0.944457003073857   0.375000000000000   1.0000000
N2   N   0.888473705487761   0.444273325082509   0.375000000000000   1.0000000
N2   N   0.055550478472852   0.611105274838563   0.875000000000000   1.0000000
N2   N   0.222220321854517   0.111116811914927   0.875000000000000   1.0000000
N2   N   0.722218489377198   0.611110496539031   0.875000000000000   1.0000000
N2   N   0.555563029189233   0.111114962930372   0.875000000000000   1.0000000
N2   N   0.888891599184403   0.111112466258872   0.875000000000000   1.0000000
B2   B   0.109871653709846   0.054488706737919   0.375000000000000   1.0000000
B2   B   0.615724692671086   0.561799673740699   0.375000000000000   1.0000000
B2   B   0.444076616449349   0.053222178883093   0.375000000000000   1.0000000
B2   B   0.944459926959841   0.555319273696671   0.375000000000000   1.0000000
B2   B   0.777911580536599   0.055622456934968   0.375000000000000   1.0000000
B2   B   0.111123496308366   0.722228414820847   0.875000000000000   1.0000000
B2   B   0.444440369085973   0.722244416959007   0.875000000000000   1.0000000
B2   B   0.277704973969488   0.222180980330535   0.875000000000000   1.0000000
B2   B   0.777822396651428   0.722290772915399   0.875000000000000   1.0000000
B2   B   0.611131915880907   0.222179013461142   0.875000000000000   1.0000000
B2   B   0.944449935495804   0.222212016679934   0.875000000000000   1.0000000
B2   B   0.277025813816892   0.722281544391812   0.375000000000000   1.0000000
B2   B   0.111285015776680   0.222309174555004   0.375000000000000   1.0000000
B2   B   0.441163089310844   0.215839640295641   0.375000000000000   1.0000000
B2   B   0.611599048678098   0.723369578732457   0.375000000000000   1.0000000
B2   B   0.944459926959841   0.722473986596507   0.375000000000000   1.0000000
B2   B   0.777943641391256   0.221793340349925   0.375000000000000   1.0000000
B2   B   0.111113307239932   0.888901192986779   0.875000000000000   1.0000000
B2   B   0.444447649879608   0.888890491606469   0.875000000000000   1.0000000
B2   B   0.277704973969488   0.388857326972282   0.875000000000000   1.0000000
B2   B   0.611131088197245   0.388854617973898   0.875000000000000   1.0000000
B2   B   0.777809410647775   0.888942420638878   0.875000000000000   1.0000000
B2   B   0.944465345585060   0.388868995350717   0.875000000000000   1.0000000
B2   B   0.109871653709846   0.388716280305256   0.375000000000000   1.0000000
B2   B   0.277025813816892   0.888077602758408   0.375000000000000   1.0000000
B2   B   0.611316223815474   0.889239902804194   0.375000000000000   1.0000000
B2   B   0.944067038630686   0.888944044533259   0.375000000000000   1.0000000
B2   B   0.778562231781383   0.388204121073983   0.375000000000000   1.0000000
B2   B   0.277748666829281   0.555547275172584   0.875000000000000   1.0000000
B2   B   0.111086093502396   0.055549948024766   0.875000000000000   1.0000000
B2   B   0.611131088197245   0.555609803556675   0.875000000000000   1.0000000
B2   B   0.444440369085973   0.055529285460303   0.875000000000000   1.0000000
B2   B   0.944480133994340   0.555555967575030   0.875000000000000   1.0000000
B2   B   0.110207409202123   0.555340848540883   0.375000000000000   1.0000000
B2   B   0.777799173501520   0.055566253417427   0.875000000000000   1.0000000
B2   B   0.276204352257693   0.053481604518387   0.375000000000000   1.0000000
B2   B   0.441163089310844   0.558656782348539   0.375000000000000   1.0000000
B2   B   0.779629380156065   0.556481356744700   0.375000000000000   1.0000000
B2   B   0.611316223815474   0.055409654344608   0.375000000000000   1.0000000
B2   B   0.444415115823785   0.555574650055489   0.875000000000000   1.0000000
B2   B   0.944408028672394   0.055709195391105   0.375000000000000   1.0000000
B2   B   0.277773003682345   0.722221983095122   0.875000000000000   1.0000000
B2   B   0.111069917031619   0.222201625182473   0.875000000000000   1.0000000
B2   B   0.444415115823785   0.222173799101632   0.875000000000000   1.0000000
B2   B   0.611131915880907   0.722286235753094   0.875000000000000   1.0000000
B2   B   0.944480133994340   0.722257499752647   0.875000000000000   1.0000000
B2   B   0.777809410647775   0.222200323342225   0.875000000000000   1.0000000
B2   B   0.110469232278160   0.721901282805743   0.375000000000000   1.0000000
B2   B   0.444076616449349   0.724187770899590   0.375000000000000   1.0000000
B2   B   0.276170090251789   0.219743366308927   0.375000000000000   1.0000000
B2   B   0.778562231781383   0.723691444040727   0.375000000000000   1.0000000
B2   B   0.611599048678098   0.221562803278968   0.375000000000000   1.0000000
B2   B   0.944408028672394   0.222032166614626   0.375000000000000   1.0000000
B2   B   0.111086093502396   0.388869478810959   0.875000000000000   1.0000000
B2   B   0.277773003682345   0.888884353920554   0.875000000000000   1.0000000
B2   B   0.611128654355203   0.888919165285773   0.875000000000000   1.0000000
B2   B   0.444378354432009   0.388855843882669   0.875000000000000   1.0000000
B2   B   0.944465345585060   0.888929683567671   0.875000000000000   1.0000000
B2   B   0.110207409202123   0.888199893994569   0.375000000000000   1.0000000
B2   B   0.777822396651428   0.388864957069357   0.875000000000000   1.0000000
B2   B   0.444323327526505   0.888828330429917   0.375000000000000   1.0000000
B2   B   0.276170090251789   0.389760057276190   0.375000000000000   1.0000000
B2   B   0.276204352257693   0.556056081072642   0.375000000000000   1.0000000
B2   B   0.615724692671086   0.387258352263715   0.375000000000000   1.0000000
B2   B   0.777943641391256   0.889483634374660   0.375000000000000   1.0000000
B2   B   0.944067038630686   0.388456327430755   0.375000000000000   1.0000000
B2   B   0.111113307239932   0.555545447586481   0.875000000000000   1.0000000
B2   B   0.277748666829281   0.055534724990034   0.875000000000000   1.0000000
B2   B   0.777825378974497   0.555579356153915   0.875000000000000   1.0000000
B2   B   0.611128654355203   0.055542822402760   0.875000000000000   1.0000000
B2   B   0.944449935495804   0.055571252149206   0.875000000000000   1.0000000
B2   B   0.055590260988728   0.111127351896254   0.124885006672762   1.0000000
B2   B   0.555512654198715   0.611320784689660   0.124977540607231   1.0000000
B2   B   0.388783796521232   0.110883977819921   0.124798999930615   1.0000000
B2   B   0.889155776775853   0.611244555054598   0.124871326508850   1.0000000
B2   B   0.722234338784759   0.111070685817556   0.124924510010694   1.0000000
B2   B   0.055699520798861   0.777853549981288   0.625063853374912   1.0000000
B2   B   0.388845842604993   0.777817097891994   0.625109958852239   1.0000000
B2   B   0.222165943251719   0.277749638292528   0.624877350957808   1.0000000
B2   B   0.722305984975925   0.777933433472127   0.625210736193205   1.0000000
B2   B   0.555512654198715   0.277525202842391   0.625022459392768   1.0000000
B2   B   0.888972379826881   0.277778932229239   0.625064526023522   1.0000000
B2   B   0.222259341320679   0.777796337327008   0.124977246781270   1.0000000
B2   B   0.055590260988728   0.277796242425810   0.124885006672762   1.0000000
B2   B   0.388640223934265   0.277362040411756   0.126877333433571   1.0000000
B2   B   0.555508830219474   0.777888780390359   0.124787859218705   1.0000000
B2   B   0.889085504768650   0.777929950308051   0.124860090583099   1.0000000
B2   B   0.722305984975925   0.277705884837134   0.124789263806794   1.0000000
B2   B   0.055637849511421   0.944490381060750   0.625109319810568   1.0000000
B2   B   0.388845842604993   0.944362078046333   0.625109958852239   1.0000000
B2   B   0.222178618936611   0.444495777437116   0.625171641253207   1.0000000
B2   B   0.555833107408208   0.444583220370768   0.623746834111429   1.0000000
B2   B   0.722234338784759   0.944496986300539   0.625075489989306   1.0000000
B2   B   0.889085504768650   0.444488887793935   0.625139909416902   1.0000000
B2   B   0.055637849511421   0.444480801784000   0.124890680189433   1.0000000
B2   B   0.222229993724792   0.944398465288417   0.124910575332366   1.0000000
B2   B   0.555519580633451   0.944426456983390   0.124923176216115   1.0000000
B2   B   0.388640223934265   0.444611516855845   0.126877333433571   1.0000000
B2   B   0.888972379826881   0.944526780930977   0.124935473976478   1.0000000
B2   B   0.722512007562097   0.444511978928806   0.124861109981678   1.0000000
B2   B   0.222229993724792   0.611164861769710   0.625089424667635   1.0000000
B2   B   0.055590260988728   0.111127351896254   0.625114993327239   1.0000000
B2   B   0.555512654198715   0.611320784689660   0.625022459392768   1.0000000
B2   B   0.388783796521232   0.110883977819921   0.625201000069385   1.0000000
B2   B   0.889155776775853   0.611244555054598   0.625128673491150   1.0000000
B2   B   0.055699520798861   0.611179304150910   0.124936146625087   1.0000000
B2   B   0.722234338784759   0.111070685817556   0.625075489989306   1.0000000
B2   B   0.222178618936611   0.111016174832831   0.124828358746793   1.0000000
B2   B   0.388783796521232   0.611233152034653   0.124798999930615   1.0000000
B2   B   0.722512007562097   0.611333361966627   0.124861109981678   1.0000000
B2   B   0.555508830219474   0.110953383162452   0.124787859218705   1.0000000
B2   B   0.388783796521232   0.611233152034653   0.625201000069385   1.0000000
B2   B   0.888933123290002   0.111133228311672   0.124974367541818   1.0000000
B2   B   0.222259341320679   0.777796337327008   0.625022753218729   1.0000000
B2   B   0.055590260988728   0.277796242425810   0.625114993327239   1.0000000
B2   B   0.388640223934265   0.277362040411756   0.623122666566430   1.0000000
B2   B   0.555508830219474   0.777888780390359   0.625212140781296   1.0000000
B2   B   0.889085504768650   0.777929950308051   0.625139909416902   1.0000000
B2   B   0.722305984975925   0.277705884837134   0.625210736193205   1.0000000
B2   B   0.055699520798861   0.777853549981288   0.124936146625087   1.0000000
B2   B   0.388845842604993   0.777817097891994   0.124890041147760   1.0000000
B2   B   0.222165943251719   0.277749638292528   0.125122649042193   1.0000000
B2   B   0.722305984975925   0.777933433472127   0.124789263806794   1.0000000
B2   B   0.555512654198715   0.277525202842391   0.124977540607231   1.0000000
B2   B   0.888972379826881   0.277778932229239   0.124935473976478   1.0000000
B2   B   0.055637849511421   0.444480801784000   0.625109319810568   1.0000000
B2   B   0.222229993724792   0.944398465288417   0.625089424667635   1.0000000
B2   B   0.555519580633451   0.944426456983390   0.625076823783885   1.0000000
B2   B   0.388640223934265   0.444611516855845   0.623122666566430   1.0000000
B2   B   0.888972379826881   0.944526780930977   0.625064526023522   1.0000000
B2   B   0.055637849511421   0.944490381060750   0.124890680189433   1.0000000
B2   B   0.722512007562097   0.444511978928806   0.625138890018322   1.0000000
B2   B   0.388845842604993   0.944362078046333   0.124890041147760   1.0000000
B2   B   0.222178618936611   0.444495777437116   0.124828358746793   1.0000000
B2   B   0.222229993724792   0.611164861769710   0.124910575332366   1.0000000
B2   B   0.555833107408208   0.444583220370768   0.126253165888571   1.0000000
B2   B   0.722234338784759   0.944496986300539   0.124924510010694   1.0000000
B2   B   0.889085504768650   0.444488887793935   0.124860090583099   1.0000000
B2   B   0.055699520798861   0.611179304150910   0.625063853374912   1.0000000
B2   B   0.222178618936611   0.111016174832831   0.625171641253207   1.0000000
B2   B   0.722512007562097   0.611333361966627   0.625138890018322   1.0000000
B2   B   0.555508830219474   0.110953383162452   0.625212140781296   1.0000000
B2   B   0.888933123290002   0.111133228311672   0.625025632458182   1.0000000


