data_1
_audit_creation_method   'vasp2cif'
_cell_length_a    17.52789999999977
_cell_length_b    17.52789999999977
_cell_length_c    15.0
_cell_angle_alpha    90.0
_cell_angle_beta    90.0
_cell_angle_gamma    119.99999999999916

_symmetry_space_group_name_H-M    'P 1'
loop_
_atom_site_label
_atom_site_type_symbol
_atom_site_fract_x
_atom_site_fract_y
_atom_site_fract_z
_atom_site_occupancy
B2   B   0.902437953299465   0.949807620287918   0.106550122597570   1.0000000
B2   B   0.903739548103364   0.093114460431451   0.109342456804054   1.0000000
B2   B   0.904510719354823   0.236160988807001   0.108822685072437   1.0000000
B2   B   0.904822726642782   0.379174796571541   0.106413948183291   1.0000000
B2   B   0.905820877498120   0.522605737557820   0.103743991699321   1.0000000
B2   B   0.905668941355235   0.666006871991045   0.101943857828258   1.0000000
B2   B   0.903975907255343   0.808627402399999   0.101463095580923   1.0000000
B2   B   0.047226910078574   0.952640653296635   0.106343287588052   1.0000000
B2   B   0.047937555549802   0.095715353204862   0.107536004479205   1.0000000
B2   B   0.048116712562776   0.237822949615720   0.108159542507477   1.0000000
B2   B   0.047751769031835   0.379979555959442   0.107493507734491   1.0000000
B2   B   0.047376150763677   0.522952890763090   0.106610825002544   1.0000000
B2   B   0.047229291757826   0.666485517926818   0.106175781472309   1.0000000
B2   B   0.047277558323580   0.809769614146226   0.105585262596924   1.0000000
B2   B   0.190400450993733   0.953469112268424   0.108272417389326   1.0000000
B2   B   0.191155247349220   0.096947917125279   0.106347961942620   1.0000000
B2   B   0.193919246253937   0.242201923983344   0.106060312179212   1.0000000
B2   B   0.192002973875742   0.382242785981260   0.106874437121848   1.0000000
B2   B   0.189649870560308   0.523815922433700   0.107629585590837   1.0000000
B2   B   0.188418647500627   0.666843009997573   0.108839550071341   1.0000000
B2   B   0.189705471302711   0.810162599391952   0.109378938905360   1.0000000
B2   B   0.332994675531645   0.953186192336019   0.110381531400698   1.0000000
B2   B   0.333948009678548   0.096806361669448   0.109287361511817   1.0000000
B2   B   0.334898954734848   0.240890096111166   0.107894202515047   1.0000000
B2   B   0.342538641870860   0.391773247592201   0.109560393288406   1.0000000
B2   B   0.333129013661442   0.526254792013494   0.107706879664050   1.0000000
B2   B   0.329069072749011   0.667668977988953   0.108920170048025   1.0000000
B2   B   0.331947079360029   0.810167219971261   0.111126054710384   1.0000000
B2   B   0.475442477421447   0.951305563603168   0.111066539077937   1.0000000
B2   B   0.476302594494315   0.095018462574049   0.110107318952094   1.0000000
B2   B   0.477332182844734   0.238760728310179   0.117283022904282   1.0000000
B2   B   0.471157590430034   0.374707303401353   0.148772931385332   1.0000000
B2   B   0.491479135978939   0.579985533797981   0.122994566458505   1.0000000
B2   B   0.467585294466733   0.661390085024341   0.117326323804533   1.0000000
B2   B   0.473924006717376   0.807150381163906   0.112914565073191   1.0000000
B2   B   0.617432909140933   0.948640401277896   0.111323305579622   1.0000000
B2   B   0.618639432991585   0.093101502377866   0.110025748512945   1.0000000
B2   B   0.619409714365069   0.236807787837541   0.111903398498868   1.0000000
B2   B   0.620442823509552   0.380263608349929   0.125965539488100   1.0000000
B2   B   0.635143828249877   0.529634060236453   0.145841249717680   1.0000000
B2   B   0.611006238710744   0.650762168583916   0.110448971852534   1.0000000
B2   B   0.614449443386011   0.802127232536162   0.111832669589625   1.0000000
B2   B   0.759175896648216   0.948031006355147   0.109444207290400   1.0000000
B2   B   0.760934036782895   0.092326956621974   0.110205135312429   1.0000000
B2   B   0.761781243203525   0.235861600862174   0.108762786435358   1.0000000
B2   B   0.762372366133188   0.379111676877301   0.108511549133401   1.0000000
B2   B   0.764840391066232   0.522289668514477   0.107967114064528   1.0000000
B2   B   0.763776035359927   0.665166595610122   0.100466175013651   1.0000000
B2   B   0.756288094683365   0.802825588190824   0.104604071884386   1.0000000
N2   N   0.951765308252962   0.904005311575739   0.104812683665246   1.0000000
N2   N   0.951684647065287   0.046066156363955   0.108212854299923   1.0000000
N2   N   0.952221600901231   0.188806438819142   0.109220222904593   1.0000000
N2   N   0.952267611633280   0.331535129740588   0.107603917722509   1.0000000
N2   N   0.952579132205788   0.474547871682969   0.105184275610409   1.0000000
N2   N   0.952808395885890   0.618128426904122   0.103518626884402   1.0000000
N2   N   0.952398885025533   0.761581722720243   0.102116418163096   1.0000000
N2   N   0.095050699926819   0.905267853899009   0.106930548862027   1.0000000
N2   N   0.095508104060703   0.048196720425682   0.106958536308128   1.0000000
N2   N   0.097001871566131   0.191736695060082   0.107431021256864   1.0000000
N2   N   0.095832037777821   0.332991591589356   0.107566483992575   1.0000000
N2   N   0.094462770691627   0.475212353317670   0.107290047274761   1.0000000
N2   N   0.093803317870340   0.618441032340120   0.107467520990574   1.0000000
N2   N   0.094641453144809   0.762049147781335   0.107450415171530   1.0000000
N2   N   0.237645035903645   0.905586692957904   0.109821074561261   1.0000000
N2   N   0.238413878539569   0.048869596412907   0.107686729992774   1.0000000
N2   N   0.239413603936618   0.192427829542271   0.104689502287810   1.0000000
N2   N   0.243370341419845   0.338585602923718   0.106086917572601   1.0000000
N2   N   0.237430364956414   0.476729465501242   0.107225143984715   1.0000000
N2   N   0.234515098111563   0.619033547711681   0.108319084435687   1.0000000
N2   N   0.236603869352261   0.762364769642641   0.110106748494517   1.0000000
N2   N   0.380119650309999   0.905302441598022   0.111211257232214   1.0000000
N2   N   0.380976301039223   0.048348899156206   0.109933658212339   1.0000000
N2   N   0.381866333895027   0.191901903541610   0.111095282409786   1.0000000
N2   N   0.383059636037866   0.335940232060368   0.113663759533675   1.0000000
N2   N   0.391160463864719   0.489529615642110   0.109203586563802   1.0000000
N2   N   0.374162283078955   0.620455011238611   0.108066285599105   1.0000000
N2   N   0.378575769536428   0.762584385454017   0.111505193802744   1.0000000
N2   N   0.522284060114049   0.902903978695606   0.111856622668485   1.0000000
N2   N   0.523426666113695   0.046649198969566   0.110069276890317   1.0000000
N2   N   0.524252861611112   0.190078965454729   0.111576496845609   1.0000000
N2   N   0.524578697326953   0.332690177219090   0.132555289920666   1.0000000
N2   N   0.519429602947111   0.757700640419818   0.115315980918654   1.0000000
N2   N   0.663834866464458   0.899510958143375   0.110811127735661   1.0000000
N2   N   0.665670346773281   0.044678924893964   0.110578353275748   1.0000000
N2   N   0.666591284585051   0.188505593027189   0.109512456020453   1.0000000
N2   N   0.667209596897796   0.331850907010404   0.114335123639380   1.0000000
N2   N   0.672291094552801   0.475131673956277   0.124257979972883   1.0000000
N2   N   0.670617024103761   0.615990637774528   0.108833181493847   1.0000000
N2   N   0.659532440765092   0.751411919714099   0.108388068584964   1.0000000
N2   N   0.806286771556627   0.900080357832119   0.106903995387703   1.0000000
N2   N   0.808104977874709   0.044342978900031   0.110103170507774   1.0000000
N2   N   0.809096394888205   0.187965556926347   0.109347114144560   1.0000000
N2   N   0.809618557163220   0.331117306239714   0.107129989065079   1.0000000
N2   N   0.811372668289972   0.474200270600121   0.104350290608056   1.0000000
N2   N   0.811686858422965   0.617679980207385   0.101811276222260   1.0000000
N2   N   0.808971065737001   0.760127778056885   0.098716945929737   1.0000000
Ga2   Ga   0.525493351355733   0.493628842609909   0.219882260541355   1.0000000


