data_1
_audit_creation_method   'vasp2cif'
_cell_length_a    17.52789999999977
_cell_length_b    17.52789999999977
_cell_length_c    15.0
_cell_angle_alpha    90.0
_cell_angle_beta    90.0
_cell_angle_gamma    119.99999999999916

_symmetry_space_group_name_H-M    'P 1'
loop_
_atom_site_label
_atom_site_type_symbol
_atom_site_fract_x
_atom_site_fract_y
_atom_site_fract_z
_atom_site_occupancy
B2   B   0.907763918003066   0.952764816562406   0.122079095269704   1.0000000
B2   B   0.908723798258933   0.095644777763114   0.117410998261118   1.0000000
B2   B   0.909014230668726   0.237947089141755   0.108170010852210   1.0000000
B2   B   0.909027333512551   0.380529371904400   0.104175191639153   1.0000000
B2   B   0.908193721614924   0.523227582023403   0.110354628280907   1.0000000
B2   B   0.906578706069323   0.665613661487407   0.118286449971649   1.0000000
B2   B   0.904100144447847   0.807163844436438   0.119012697683340   1.0000000
B2   B   0.050236541514943   0.953531644607690   0.121397654867051   1.0000000
B2   B   0.052409383301063   0.097342528132086   0.119637971474525   1.0000000
B2   B   0.052407089658798   0.239283435741816   0.110436044297503   1.0000000
B2   B   0.051467789017525   0.381479411923377   0.100634347976356   1.0000000
B2   B   0.049956686143218   0.524493089462751   0.099203354328152   1.0000000
B2   B   0.049218387082724   0.667499184179186   0.107709902851971   1.0000000
B2   B   0.049018757242841   0.810278447704198   0.116812950729826   1.0000000
B2   B   0.193145131249596   0.954656127358419   0.114853783717496   1.0000000
B2   B   0.196302667104640   0.099656606001505   0.117619271688760   1.0000000
B2   B   0.197240005799156   0.242169841380491   0.112967010107370   1.0000000
B2   B   0.194963040263171   0.382939164138171   0.104371204416766   1.0000000
B2   B   0.191594650982182   0.525425924127954   0.096269117650657   1.0000000
B2   B   0.190858439041117   0.668570501290772   0.097654439751584   1.0000000
B2   B   0.191835906432740   0.811399169975476   0.106779784211715   1.0000000
B2   B   0.335473479709360   0.954543922164109   0.106684474115261   1.0000000
B2   B   0.337293798766484   0.098345089260794   0.110877516739330   1.0000000
B2   B   0.343767154714842   0.246900748346258   0.111957976056603   1.0000000
B2   B   0.341853461793760   0.387270661919335   0.114701103262168   1.0000000
B2   B   0.332188108669201   0.527854637150571   0.112722307649594   1.0000000
B2   B   0.331562316080820   0.669726879211810   0.103189742901080   1.0000000
B2   B   0.334328786814760   0.811969638580302   0.101572849115975   1.0000000
B2   B   0.478150057806791   0.953302396430793   0.105232904336851   1.0000000
B2   B   0.479259819808092   0.095656872885978   0.106401512168867   1.0000000
B2   B   0.481081711976414   0.238606239110130   0.109413492964993   1.0000000
B2   B   0.497123443037792   0.393085870748520   0.108475569290213   1.0000000
B2   B   0.470037565745353   0.668112457980853   0.121517076319935   1.0000000
B2   B   0.476976022945598   0.810949360910233   0.106064453504263   1.0000000
B2   B   0.621146447746927   0.953189246546265   0.112315697325890   1.0000000
B2   B   0.622121327205238   0.094606068490751   0.107397610369242   1.0000000
B2   B   0.623092654760019   0.235720821242435   0.107374927402690   1.0000000
B2   B   0.625250453790302   0.375819185996208   0.114872543297426   1.0000000
B2   B   0.612797912615815   0.502827676961138   0.109165769240986   1.0000000
B2   B   0.620301808179076   0.811927575802352   0.109990465145483   1.0000000
B2   B   0.764555420528974   0.952449639969164   0.118517517779267   1.0000000
B2   B   0.765382593357683   0.094888729851407   0.112823539034824   1.0000000
B2   B   0.766076656439061   0.236981918155031   0.106913972794412   1.0000000
B2   B   0.767027937078573   0.379123346948680   0.110446073158280   1.0000000
B2   B   0.765562772140649   0.520512576949758   0.119539082112430   1.0000000
B2   B   0.759677051652545   0.658358927718375   0.113227247775257   1.0000000
B2   B   0.763700455022982   0.809435240086475   0.111501347727853   1.0000000
Ge2   Ge   0.606302546120025   0.654027447798647   0.063871435780729   1.0000000
N2   N   0.953945070397876   0.903855586438793   0.121976978114279   1.0000000
N2   N   0.956618969181076   0.048515825940882   0.121379745335832   1.0000000
N2   N   0.956933761434083   0.190896587251685   0.112195566388086   1.0000000
N2   N   0.956544588530521   0.333111879956871   0.103333593689011   1.0000000
N2   N   0.955502674703384   0.475864059303429   0.103752235221928   1.0000000
N2   N   0.954501314695643   0.618654699397321   0.112983863956672   1.0000000
N2   N   0.953327019342179   0.761138320656126   0.119394356235466   1.0000000
N2   N   0.097614947769326   0.905974306252922   0.118934904883517   1.0000000
N2   N   0.099982736024416   0.049982926364790   0.121161927482173   1.0000000
N2   N   0.101162064147179   0.192982260495040   0.114818373119388   1.0000000
N2   N   0.099710454692284   0.334399266844540   0.103921336260636   1.0000000
N2   N   0.097205263195417   0.476728104137931   0.095927633912466   1.0000000
N2   N   0.096268383466183   0.619942066853543   0.099839023748258   1.0000000
N2   N   0.096613952131646   0.762945005108839   0.110624654131892   1.0000000
N2   N   0.240150693952275   0.906782144968528   0.109435185737561   1.0000000
N2   N   0.242080529403107   0.050483735770129   0.115216481351151   1.0000000
N2   N   0.246547369757873   0.196474310466319   0.115190478024330   1.0000000
N2   N   0.245465301909671   0.337781192731846   0.109333726721927   1.0000000
N2   N   0.239168305989850   0.477948031246906   0.100441720339851   1.0000000
N2   N   0.237587105675214   0.620766991022932   0.095332092207566   1.0000000
N2   N   0.239049985766044   0.763868030891010   0.100722523610819   1.0000000
N2   N   0.382791728988076   0.906855943987746   0.103680835951596   1.0000000
N2   N   0.383957962082092   0.049725601739584   0.107634934032880   1.0000000
N2   N   0.386375419823397   0.194169165192620   0.110139231914694   1.0000000
N2   N   0.396497135059520   0.345836000913609   0.110834252294596   1.0000000
N2   N   0.380726523906208   0.482292147172603   0.124753728506090   1.0000000
N2   N   0.376717254163269   0.622082137437539   0.114999456381728   1.0000000
N2   N   0.381544605045409   0.764497316530856   0.102190945239744   1.0000000
N2   N   0.525723851152562   0.905868242496096   0.107009861697506   1.0000000
N2   N   0.526721815909610   0.048052323364498   0.105839152814235   1.0000000
N2   N   0.527903851936503   0.190246136469814   0.107203530627178   1.0000000
N2   N   0.530706463685667   0.332921465858291   0.111218223707250   1.0000000
N2   N   0.467336884054108   0.526082382096866   0.148594125198589   1.0000000
N2   N   0.509435499945056   0.615720599232021   0.136581896625740   1.0000000
N2   N   0.523936866374365   0.762859082342609   0.109923293306227   1.0000000
N2   N   0.668832075101480   0.906326338537922   0.116744633555126   1.0000000
N2   N   0.669905862770727   0.047778184328768   0.111179077347607   1.0000000
N2   N   0.670785673611456   0.189070754652991   0.106203467192209   1.0000000
N2   N   0.672317393418745   0.329827031663110   0.110632093925887   1.0000000
N2   N   0.671210779098820   0.469173912362494   0.121299269595235   1.0000000
N2   N   0.663820995817796   0.599453075676442   0.103822893001102   1.0000000
N2   N   0.670345378991980   0.768549491144039   0.100283020467277   1.0000000
N2   N   0.812410628941243   0.904815824728248   0.120281370409310   1.0000000
N2   N   0.813156503732612   0.047707453599478   0.117510080547579   1.0000000
N2   N   0.813738640476460   0.189886264272075   0.109107358770906   1.0000000
N2   N   0.814265151808899   0.332034251195317   0.106379819957039   1.0000000
N2   N   0.813739260588606   0.474141940740645   0.114449153134270   1.0000000
N2   N   0.811433112503929   0.615763866478411   0.120561207231788   1.0000000
N2   N   0.807185078841372   0.756760336234367   0.113570698904288   1.0000000


