data_1
_audit_creation_method   'vasp2cif'
_cell_length_a    17.52789999999977
_cell_length_b    17.52789999999977
_cell_length_c    15.0
_cell_angle_alpha    90.0
_cell_angle_beta    90.0
_cell_angle_gamma    119.99999999999916

_symmetry_space_group_name_H-M    'P 1'
loop_
_atom_site_label
_atom_site_type_symbol
_atom_site_fract_x
_atom_site_fract_y
_atom_site_fract_z
_atom_site_occupancy
B2   B   0.903156020195997   0.950116877396432   0.107460551744792   1.0000000
B2   B   0.904308713948036   0.093244573658020   0.108880267154953   1.0000000
B2   B   0.905049712061927   0.236191194267251   0.108670901288682   1.0000000
B2   B   0.905429605715087   0.379195106002883   0.107409587550341   1.0000000
B2   B   0.906115924642597   0.522645172132893   0.105164952177710   1.0000000
B2   B   0.905776392662469   0.666059920900202   0.103554616376875   1.0000000
B2   B   0.904353244400796   0.808641901366170   0.104561637984171   1.0000000
B2   B   0.047458987217437   0.952529415795082   0.105831151208419   1.0000000
B2   B   0.048388203609331   0.095676421590253   0.107091052370572   1.0000000
B2   B   0.048570428260585   0.237886833846026   0.108133622641257   1.0000000
B2   B   0.048073433800680   0.380204586449767   0.107920907044763   1.0000000
B2   B   0.047330399602160   0.523222586353528   0.107135945004120   1.0000000
B2   B   0.047073417757337   0.666607265231119   0.106250365614648   1.0000000
B2   B   0.047277833448980   0.809701034561023   0.105407742527433   1.0000000
B2   B   0.190192457658157   0.953057232184639   0.107395843901581   1.0000000
B2   B   0.191258043623011   0.096481441522678   0.107285660831486   1.0000000
B2   B   0.194023835847554   0.241776828483271   0.108556512905394   1.0000000
B2   B   0.191955015034204   0.382405893931022   0.109230356593843   1.0000000
B2   B   0.189110983122098   0.524403272798078   0.108168373485460   1.0000000
B2   B   0.188017056688553   0.667228947747830   0.108454250269028   1.0000000
B2   B   0.189386671780974   0.810159284897774   0.108304435855037   1.0000000
B2   B   0.332612210085382   0.952813813860422   0.109437192959733   1.0000000
B2   B   0.333538495350984   0.095712676044048   0.109976702223502   1.0000000
B2   B   0.334872231882281   0.239642484813988   0.111952079491669   1.0000000
B2   B   0.341311202691724   0.390663493301321   0.113762582039855   1.0000000
B2   B   0.331410575644083   0.527354411364745   0.108722673141486   1.0000000
B2   B   0.328356039906511   0.668659000063861   0.106011450162588   1.0000000
B2   B   0.331415280231353   0.810493377919758   0.109167246539065   1.0000000
B2   B   0.475138460953407   0.951240112294417   0.110125780728370   1.0000000
B2   B   0.476069771908562   0.093915197468359   0.111015662094410   1.0000000
B2   B   0.476954323364044   0.236310847563984   0.116602979523009   1.0000000
B2   B   0.477162620864412   0.376397581718878   0.131449939276774   1.0000000
B2   B   0.484238935389821   0.576562109674227   0.121758999576738   1.0000000
B2   B   0.467226075549452   0.664147502767470   0.107032979288465   1.0000000
B2   B   0.473383440978004   0.808130347806104   0.108823033903021   1.0000000
B2   B   0.617422551418041   0.948987006933480   0.110844612638491   1.0000000
B2   B   0.618736843393828   0.092574508955074   0.110516536835155   1.0000000
B2   B   0.619669478556379   0.235322350757242   0.113135797850731   1.0000000
B2   B   0.621514682222558   0.377825916274824   0.120961474031822   1.0000000
B2   B   0.631113484077610   0.523641776225729   0.133027253640110   1.0000000
B2   B   0.614968725099257   0.656038721294969   0.119939169846507   1.0000000
B2   B   0.614539132273032   0.803787992937997   0.112532828270067   1.0000000
B2   B   0.759737292456940   0.948491383650101   0.110821931408980   1.0000000
B2   B   0.761333721669050   0.092307414235105   0.110182482048033   1.0000000
B2   B   0.762292154190246   0.235497961497190   0.109700082285005   1.0000000
B2   B   0.763366246945783   0.378591845328855   0.109839967300855   1.0000000
B2   B   0.765665082205510   0.522134987261834   0.108370157196017   1.0000000
B2   B   0.764201372222231   0.665225261166036   0.106113956021471   1.0000000
B2   B   0.757735911676939   0.804025101019021   0.110315239634935   1.0000000
N2   N   0.951660280287169   0.903657574169247   0.105626917627271   1.0000000
N2   N   0.952184270236733   0.046087332858452   0.107722712638550   1.0000000
N2   N   0.952922493147299   0.188928871003581   0.108548709452678   1.0000000
N2   N   0.952868064596454   0.331660246465421   0.107871616901367   1.0000000
N2   N   0.952572066008357   0.474613681332631   0.106306495817564   1.0000000
N2   N   0.952235906996237   0.617991626618828   0.104392709627232   1.0000000
N2   N   0.951826918479085   0.761153054149006   0.103663202892837   1.0000000
N2   N   0.094897653317744   0.905052517525360   0.106048208919620   1.0000000
N2   N   0.095911879691483   0.048234872925910   0.106371496066804   1.0000000
N2   N   0.097886024604562   0.192053902918197   0.107670226820093   1.0000000
N2   N   0.096702175036755   0.333365404996653   0.108329504497194   1.0000000
N2   N   0.094627177164808   0.475492503833376   0.107778807274700   1.0000000
N2   N   0.093578582682877   0.618554659144892   0.107598557953688   1.0000000
N2   N   0.094293769418630   0.761930223165806   0.106815542777619   1.0000000
N2   N   0.237455867557076   0.905454305497356   0.108555078030448   1.0000000
N2   N   0.238512510207319   0.048751651369503   0.107794603508614   1.0000000
N2   N   0.240368509209123   0.192907857718230   0.108413967618064   1.0000000
N2   N   0.244547587113038   0.339229394208615   0.110024460249488   1.0000000
N2   N   0.237635931597684   0.477227267487251   0.109274837164009   1.0000000
N2   N   0.234493438848126   0.619369400011635   0.108020067627377   1.0000000
N2   N   0.236373559600700   0.762438189539603   0.109040951515026   1.0000000
N2   N   0.379974740626208   0.905251987616452   0.109868955431331   1.0000000
N2   N   0.380921266998471   0.048095253956069   0.109937235374505   1.0000000
N2   N   0.382127660674728   0.191779680583409   0.112989653640893   1.0000000
N2   N   0.385061429226077   0.337630912395760   0.116745924931844   1.0000000
N2   N   0.391401755899026   0.490685385343588   0.114735578952661   1.0000000
N2   N   0.374231137181408   0.621073326362197   0.103408268803800   1.0000000
N2   N   0.378444659512476   0.762852990191367   0.107899882371871   1.0000000
N2   N   0.522268689556592   0.902959641135303   0.110236053999944   1.0000000
N2   N   0.523487625985770   0.046294719524991   0.110363250775021   1.0000000
N2   N   0.524378287815288   0.189253291262166   0.113419496327332   1.0000000
N2   N   0.525809181256712   0.332229897728074   0.124812069636941   1.0000000
N2   N   0.519477772777684   0.758234419927740   0.109003046408902   1.0000000
N2   N   0.663924418133838   0.899474590700801   0.111769798779644   1.0000000
N2   N   0.665904106590003   0.044442060727113   0.110535157926043   1.0000000
N2   N   0.666909447819419   0.187947725354666   0.110783590365034   1.0000000
N2   N   0.667881429113513   0.330786318784097   0.114645977263338   1.0000000
N2   N   0.670714114826431   0.473142803783174   0.119054448956956   1.0000000
N2   N   0.668017964082079   0.614821150347342   0.113490332164954   1.0000000
N2   N   0.659305693681434   0.751663523377096   0.115653193761555   1.0000000
N2   N   0.806458646884012   0.899920053311077   0.109535251280891   1.0000000
N2   N   0.808492418010608   0.044212418274492   0.110130025986357   1.0000000
N2   N   0.809589940414160   0.187845259179335   0.109463363094607   1.0000000
N2   N   0.810149904863660   0.330954314425861   0.108601121548112   1.0000000
N2   N   0.811123183688819   0.473976044028558   0.106380189646375   1.0000000
N2   N   0.810442341386899   0.617108967887534   0.104439526898881   1.0000000
N2   N   0.808101254413219   0.759237832726581   0.105729495511810   1.0000000
Al2   Al   0.519826905612829   0.501075494995660   0.206435064370705   1.0000000


