data_1
_audit_creation_method   'vasp2cif'
_cell_length_a    17.52789999999977
_cell_length_b    17.52789999999977
_cell_length_c    15.0
_cell_angle_alpha    90.0
_cell_angle_beta    90.0
_cell_angle_gamma    119.99999999999916

_symmetry_space_group_name_H-M    'P 1'
loop_
_atom_site_label
_atom_site_type_symbol
_atom_site_fract_x
_atom_site_fract_y
_atom_site_fract_z
_atom_site_occupancy
As2   As   0.522925000732817   0.493170845962376   0.110916561928529   1.0000000
B2   B   0.905894331394273   0.952933190918286   0.111010264586207   1.0000000
B2   B   0.903440087312001   0.093778828889616   0.111078469256115   1.0000000
B2   B   0.902833074902276   0.236162532682346   0.111057088977185   1.0000000
B2   B   0.903582732815497   0.379464313262470   0.110967971342116   1.0000000
B2   B   0.906920950258155   0.523773737593581   0.110977126258794   1.0000000
B2   B   0.909628365260633   0.668452394949221   0.110982237631872   1.0000000
B2   B   0.909668350879809   0.812623749236015   0.110989988992464   1.0000000
B2   B   0.049618051822907   0.953625940245421   0.110966545360656   1.0000000
B2   B   0.047623959968066   0.095445144116271   0.110974286293830   1.0000000
B2   B   0.045398172476865   0.236709114684844   0.110956844589881   1.0000000
B2   B   0.044720081770457   0.379265596596230   0.110909836968343   1.0000000
B2   B   0.046135925060372   0.523082843500340   0.110942791317735   1.0000000
B2   B   0.049019864593247   0.667285389506299   0.111012315600197   1.0000000
B2   B   0.050449046563659   0.810949035473318   0.111017953720708   1.0000000
B2   B   0.192070652851403   0.953051503783976   0.111018527300118   1.0000000
B2   B   0.190198405322520   0.094994789813141   0.111049519803567   1.0000000
B2   B   0.189576184215751   0.238701893840150   0.111040857951732   1.0000000
B2   B   0.186400841818645   0.379703106520836   0.110968421505377   1.0000000
B2   B   0.185451966170722   0.522782482257622   0.110927024257323   1.0000000
B2   B   0.188797309584343   0.666441093803916   0.110998425264545   1.0000000
B2   B   0.191779592828842   0.809958885265401   0.110997510240281   1.0000000
B2   B   0.334277871146016   0.952019190587224   0.111002391219713   1.0000000
B2   B   0.333857740372344   0.095062935268276   0.111104087399543   1.0000000
B2   B   0.330092638850466   0.235891055974468   0.111144922270538   1.0000000
B2   B   0.332105411109103   0.385272636489273   0.111144997462464   1.0000000
B2   B   0.323524867381665   0.523234112314430   0.111036828238167   1.0000000
B2   B   0.328580050667570   0.665685893896814   0.110990627303025   1.0000000
B2   B   0.333556991850261   0.808799249010209   0.111008125358056   1.0000000
B2   B   0.476318381393740   0.949621382782405   0.110967577049344   1.0000000
B2   B   0.476478718494793   0.093541581031648   0.111032794455609   1.0000000
B2   B   0.476183090024709   0.236245424254971   0.111097185715238   1.0000000
B2   B   0.467968794221731   0.369917274189966   0.111113826130413   1.0000000
B2   B   0.470087453469225   0.564685305741162   0.111482967968491   1.0000000
B2   B   0.468267526479347   0.655303893132756   0.111240423928642   1.0000000
B2   B   0.475599963838079   0.804283010696397   0.111021627879830   1.0000000
B2   B   0.618120393610675   0.949205628156688   0.111032245583820   1.0000000
B2   B   0.618522540886849   0.093051006604802   0.111028822906937   1.0000000
B2   B   0.619085098316548   0.236832895031443   0.110993131215972   1.0000000
B2   B   0.620757756158920   0.381193659329784   0.111036682112152   1.0000000
B2   B   0.641238126575112   0.534849482780122   0.110960649186490   1.0000000
B2   B   0.626880726976926   0.668347990162017   0.111257807357659   1.0000000
B2   B   0.617049722966691   0.805047326724829   0.111087249223482   1.0000000
B2   B   0.760743895130908   0.950342546486833   0.111088759550374   1.0000000
B2   B   0.760553828236050   0.093001446345409   0.111145606431237   1.0000000
B2   B   0.760936313658241   0.236227418961858   0.111055910018454   1.0000000
B2   B   0.762485671210261   0.379952299164799   0.110959362873010   1.0000000
B2   B   0.768739507500753   0.524871871069508   0.110959375022101   1.0000000
B2   B   0.773333210232808   0.672919683597046   0.110959951755686   1.0000000
B2   B   0.764485077517590   0.810619529568073   0.110989649660207   1.0000000
N2   N   0.955317157568391   0.906944775453379   0.110959046520273   1.0000000
N2   N   0.952592587831641   0.047770041280116   0.111001233942236   1.0000000
N2   N   0.950403943043713   0.188759921911348   0.111018482164320   1.0000000
N2   N   0.949939123927126   0.331200669416872   0.110953114060776   1.0000000
N2   N   0.951818921777400   0.474756227386172   0.110941788881466   1.0000000
N2   N   0.954763563440618   0.619262726561768   0.110980954376080   1.0000000
N2   N   0.956096006882658   0.763720235243539   0.110993982724219   1.0000000
N2   N   0.097242793033772   0.905964436704648   0.110974566376329   1.0000000
N2   N   0.095624466333988   0.048083220643850   0.110946121952884   1.0000000
N2   N   0.094229728522966   0.190334718553437   0.110960501140070   1.0000000
N2   N   0.091520775391125   0.331232076232168   0.110893014248495   1.0000000
N2   N   0.091096225123284   0.474236776620701   0.110879511583603   1.0000000
N2   N   0.094106039324824   0.618449760716614   0.110971660851136   1.0000000
N2   N   0.096852313226016   0.762593727204944   0.111010682587477   1.0000000
N2   N   0.239233463511936   0.905181781852409   0.110984736270452   1.0000000
N2   N   0.238742650086971   0.047956680277041   0.111057994156066   1.0000000
N2   N   0.235770439410215   0.189195120073592   0.111081547056413   1.0000000
N2   N   0.235987560782617   0.333851749533624   0.111034799320652   1.0000000
N2   N   0.229813263563699   0.473660514548598   0.110941604316956   1.0000000
N2   N   0.233321079018244   0.617813442273696   0.110947922244011   1.0000000
N2   N   0.237979099479352   0.761848790440002   0.110992763903082   1.0000000
N2   N   0.381243779097999   0.904138457576986   0.110966605696195   1.0000000
N2   N   0.381443412489491   0.047213395328401   0.111032798930525   1.0000000
N2   N   0.380611931229357   0.189959578067950   0.111108752782147   1.0000000
N2   N   0.374896423432380   0.329344123760211   0.111145089595514   1.0000000
N2   N   0.374293588243133   0.480483270541795   0.111163292101013   1.0000000
N2   N   0.371303324277882   0.617206296562677   0.111007105333245   1.0000000
N2   N   0.379695301843471   0.761046831742951   0.110994611258826   1.0000000
N2   N   0.523152063514978   0.901255877006531   0.110958164404930   1.0000000
N2   N   0.523604319638162   0.045467733141054   0.110974244257781   1.0000000
N2   N   0.523890767377991   0.188829782830431   0.111017893406126   1.0000000
N2   N   0.523949603547799   0.331423672029291   0.111085173622132   1.0000000
N2   N   0.521931510643747   0.755210185977605   0.111098677356115   1.0000000
N2   N   0.665698007667181   0.901943159056344   0.111044984943657   1.0000000
N2   N   0.665679509600704   0.045218849708385   0.111060918770260   1.0000000
N2   N   0.666000807103753   0.188657811787748   0.111004193013792   1.0000000
N2   N   0.667115210225725   0.332328171403006   0.110961890727738   1.0000000
N2   N   0.675050038955315   0.476733996673353   0.110993096018536   1.0000000
N2   N   0.681170736176822   0.627068832604850   0.111044251259558   1.0000000
N2   N   0.669887762733242   0.762528525116948   0.111045867880499   1.0000000
N2   N   0.811114245469977   0.905446514494141   0.111009779066045   1.0000000
N2   N   0.808412355320821   0.045893585452023   0.111121929874072   1.0000000
N2   N   0.807947110240822   0.188352206101363   0.111109725462640   1.0000000
N2   N   0.808694760173131   0.331491583534908   0.110979709956002   1.0000000
N2   N   0.812852762669454   0.475378934636985   0.110933948248565   1.0000000
N2   N   0.816017592143225   0.620796028964558   0.110910020838522   1.0000000
N2   N   0.816200925140287   0.766418636901123   0.110941245772309   1.0000000


