data_1
_audit_creation_method   'vasp2cif'
_cell_length_a    17.52789999999977
_cell_length_b    17.52789999999977
_cell_length_c    15.0
_cell_angle_alpha    90.0
_cell_angle_beta    90.0
_cell_angle_gamma    119.99999999999916

_symmetry_space_group_name_H-M    'P 1'
loop_
_atom_site_label
_atom_site_type_symbol
_atom_site_fract_x
_atom_site_fract_y
_atom_site_fract_z
_atom_site_occupancy
Ga2   Ga   0.448896457047743   0.510163431147869   0.111248990611369   1.0000000
B2   B   0.904923187411092   0.952366438055334   0.110985951224553   1.0000000
B2   B   0.905976805788973   0.095815130125303   0.111039430515554   1.0000000
B2   B   0.906353638298567   0.238891165994785   0.111103530542336   1.0000000
B2   B   0.905976805788973   0.381590369354667   0.111039430515554   1.0000000
B2   B   0.904923187411092   0.523987154603767   0.110985951224553   1.0000000
B2   B   0.903649872981025   0.666271892281908   0.111036631272209   1.0000000
B2   B   0.903649872981025   0.808808385947119   0.111036631272209   1.0000000
B2   B   0.046746253236694   0.951323660374933   0.110994531998377   1.0000000
B2   B   0.047697499723221   0.094457639635040   0.111001771529949   1.0000000
B2   B   0.048620886438003   0.238204565443397   0.111045312800602   1.0000000
B2   B   0.048620886438003   0.381846726241605   0.111045312800602   1.0000000
B2   B   0.047697499723221   0.524670265336175   0.111001771529949   1.0000000
B2   B   0.046746253236694   0.666854709665751   0.110994531998377   1.0000000
B2   B   0.046437994981569   0.808935055892783   0.110980049714239   1.0000000
B2   B   0.189515208998229   0.951325827788867   0.111005954127251   1.0000000
B2   B   0.189714435164109   0.093271874479358   0.111047089601499   1.0000000
B2   B   0.190058139941408   0.235862078323760   0.111019715240985   1.0000000
B2   B   0.190607166454922   0.381018785850964   0.111026970336603   1.0000000
B2   B   0.190058139941408   0.525626466865656   0.111019715240985   1.0000000
B2   B   0.189714435164109   0.667872965932746   0.111047089601499   1.0000000
B2   B   0.189515208998229   0.809621498013373   0.111005954127251   1.0000000
B2   B   0.332871708337479   0.952151912570244   0.111025167273613   1.0000000
B2   B   0.332866159280590   0.093314248938901   0.111064579885779   1.0000000
B2   B   0.332597575734174   0.234049543959075   0.111049040291954   1.0000000
B2   B   0.330032828654916   0.371027244932523   0.111100457239941   1.0000000
B2   B   0.330032828654916   0.530435988969392   0.111100457239941   1.0000000
B2   B   0.332597575734174   0.669978437022107   0.111049040291954   1.0000000
B2   B   0.332866159280590   0.810982315588688   0.111064579885779   1.0000000
B2   B   0.476598889067763   0.953664189962064   0.111004205216066   1.0000000
B2   B   0.476598889067763   0.094365104352705   0.111004205216066   1.0000000
B2   B   0.476734304173078   0.234943981794965   0.111016838669733   1.0000000
B2   B   0.478707232146675   0.375995032648029   0.111051934660631   1.0000000
B2   B   0.478707232146675   0.674142604745647   0.111051934660631   1.0000000
B2   B   0.476734304173078   0.813220727625119   0.111016838669733   1.0000000
B2   B   0.620351122937848   0.954153519898683   0.110987264987404   1.0000000
B2   B   0.620305840838679   0.095867267264834   0.110984035794393   1.0000000
B2   B   0.620351122937848   0.237628008286165   0.110987264987404   1.0000000
B2   B   0.620515804715187   0.379739544781426   0.110993765377789   1.0000000
B2   B   0.618989236319645   0.522136828092851   0.111042606816667   1.0000000
B2   B   0.618989236319645   0.668282813474789   0.111042606816667   1.0000000
B2   B   0.620515804715187   0.812206665180760   0.110993765377789   1.0000000
B2   B   0.763178576817296   0.953648199684246   0.110981574708923   1.0000000
B2   B   0.763507028972057   0.096284307423153   0.111023786367303   1.0000000
B2   B   0.763507028972057   0.238651415239900   0.111023786367303   1.0000000
B2   B   0.763178576817296   0.380960782380050   0.110981574708923   1.0000000
B2   B   0.762129330875191   0.523334798675165   0.111029032488231   1.0000000
B2   B   0.760301240561097   0.665865822904549   0.111094111942930   1.0000000
B2   B   0.762129330875191   0.810224937448021   0.111029032488231   1.0000000
N2   N   0.951775171268382   0.904205986381042   0.110982989935599   1.0000000
N2   N   0.953075440257199   0.047817304406433   0.110980904823479   1.0000000
N2   N   0.954171998602453   0.191355246369106   0.111063354301854   1.0000000
N2   N   0.954171998602453   0.334243734351353   0.111063354301854   1.0000000
N2   N   0.953075440257199   0.476685117968763   0.110980904823479   1.0000000
N2   N   0.951775171268382   0.618997878562336   0.110982989935599   1.0000000
N2   N   0.951308292231955   0.761368492953476   0.111006482221503   1.0000000
N2   N   0.094445150415824   0.904093449374395   0.110966033048658   1.0000000
N2   N   0.095000419581661   0.046847373713877   0.110996604338915   1.0000000
N2   N   0.096073830173373   0.190404791983715   0.110993238585400   1.0000000
N2   N   0.097074050337579   0.334251372005790   0.111008736678077   1.0000000
N2   N   0.096073830173373   0.477097731863666   0.110993238585400   1.0000000
N2   N   0.095000419581661   0.619581739542780   0.110996604338915   1.0000000
N2   N   0.094445150415824   0.761782106272435   0.110966033048658   1.0000000
N2   N   0.237585876554306   0.904508140892656   0.110983929687786   1.0000000
N2   N   0.237677698149737   0.046568119108145   0.111041764299861   1.0000000
N2   N   0.238023696920632   0.189191598726256   0.111025148369895   1.0000000
N2   N   0.239086998810166   0.333529229733739   0.111031515033688   1.0000000
N2   N   0.239086998810166   0.476986462750421   0.111031515033688   1.0000000
N2   N   0.238023696920632   0.620260791869372   0.111025148369895   1.0000000
N2   N   0.237677698149737   0.762538272716595   0.111041764299861   1.0000000
N2   N   0.381091783370458   0.905534560610606   0.111018702917495   1.0000000
N2   N   0.381091783370458   0.046985916434855   0.111018702917495   1.0000000
N2   N   0.381054986957244   0.188499139509101   0.111035264787926   1.0000000
N2   N   0.381489858140820   0.330726907298594   0.111045780006211   1.0000000
N2   N   0.381489858140820   0.622191644517229   0.111045780006211   1.0000000
N2   N   0.381054986957244   0.763984541123146   0.111035264787926   1.0000000
N2   N   0.524771902511279   0.907174994663977   0.110984093368274   1.0000000
N2   N   0.524823267616448   0.048125124867728   0.110969904818807   1.0000000
N2   N   0.524771902511279   0.189025601522298   0.110984093368274   1.0000000
N2   N   0.524858689173992   0.329294748246720   0.110987188299184   1.0000000
N2   N   0.524761719379211   0.468345697424289   0.111060376807238   1.0000000
N2   N   0.524761719379211   0.627844715629918   0.111060376807238   1.0000000
N2   N   0.524858689173992   0.766992634602274   0.110987188299184   1.0000000
N2   N   0.668036381905867   0.906758126928868   0.110964264334741   1.0000000
N2   N   0.668271618330631   0.048895673934965   0.110974613635151   1.0000000
N2   N   0.668271618330631   0.190802926514674   0.110974613635151   1.0000000
N2   N   0.668036381905867   0.332706948651994   0.110964264334741   1.0000000
N2   N   0.667102719697887   0.475008481745233   0.111003496677581   1.0000000
N2   N   0.664425885725365   0.617927289700684   0.111053263012317   1.0000000
N2   N   0.667102719697887   0.763522931627657   0.111003496677581   1.0000000
N2   N   0.810003719352676   0.905385949255367   0.110974950351772   1.0000000
N2   N   0.811089009569329   0.048756019534274   0.111000974353577   1.0000000
N2   N   0.811447733741004   0.191437357929505   0.111046960870664   1.0000000
N2   N   0.811089009569329   0.333759972153053   0.111000974353577   1.0000000
N2   N   0.810003719352676   0.476046463771310   0.110974950351772   1.0000000
N2   N   0.808372628932140   0.618496407278751   0.111053276788777   1.0000000
N2   N   0.808372628932140   0.761304915328399   0.111053276788777   1.0000000


