data_1
_audit_creation_method   'vasp2cif'
_cell_length_a    14.93631414619966
_cell_length_b    14.936314146199727
_cell_length_c    13.341276283792837
_cell_angle_alpha    90.0
_cell_angle_beta    90.0
_cell_angle_gamma    119.99999999999984

_symmetry_space_group_name_H-M    'P 1'
loop_
_atom_site_label
_atom_site_type_symbol
_atom_site_fract_x
_atom_site_fract_y
_atom_site_fract_z
_atom_site_occupancy
Sn2   Sn   0.498019637552484   0.415676485442892   0.375000000000000   1.0000000
N2   N   0.111566693074302   0.055774146623376   0.124732740304411   1.0000000
N2   N   0.611612966016469   0.555881045281297   0.123975284334011   1.0000000
N2   N   0.444885708883919   0.055736403512396   0.124683812818073   1.0000000
N2   N   0.944859361403568   0.555761830656027   0.124896496500408   1.0000000
N2   N   0.778248811710218   0.055791072521794   0.124916175274081   1.0000000
N2   N   0.111520476514921   0.722426904924099   0.625234561788043   1.0000000
N2   N   0.444885708883919   0.722482638704829   0.625316187181935   1.0000000
N2   N   0.278255740150013   0.222438991650727   0.624724661886797   1.0000000
N2   N   0.778235465242257   0.722480823697246   0.625423369104662   1.0000000
N2   N   0.611559945457653   0.222390134195143   0.625523511042191   1.0000000
N2   N   0.944918849148385   0.222457349865992   0.625131145007612   1.0000000
N2   N   0.278201154094979   0.722445723198190   0.124709414418841   1.0000000
N2   N   0.111605050550379   0.222469191941872   0.124843795692381   1.0000000
N2   N   0.444914860494042   0.222398149268992   0.124960758212916   1.0000000
N2   N   0.611559945457653   0.722503144595768   0.124476488957815   1.0000000
N2   N   0.944859361403568   0.722430864080826   0.124896496500408   1.0000000
N2   N   0.778240191105018   0.222435926105911   0.124855951855147   1.0000000
N2   N   0.111533444241771   0.889091156224385   0.625222022181067   1.0000000
N2   N   0.444884942692053   0.889109138012669   0.625161814667700   1.0000000
N2   N   0.278255740150013   0.389150081832685   0.624724661886797   1.0000000
N2   N   0.611612966016469   0.389065254068473   0.626024715665982   1.0000000
N2   N   0.778240191105018   0.889137598332441   0.625144048144809   1.0000000
N2   N   0.944894053054870   0.389106781302702   0.625111296866679   1.0000000
N2   N   0.111566693074302   0.389125879784325   0.124732740304411   1.0000000
N2   N   0.278201154094979   0.889088764230168   0.124709414418841   1.0000000
N2   N   0.611569443926611   0.889139860172441   0.124869741720571   1.0000000
N2   N   0.445032166546501   0.389182749939961   0.128908434775780   1.0000000
N2   N   0.944894053054870   0.889120605085340   0.124888703133392   1.0000000
N2   N   0.778235465242257   0.389087974878225   0.124576630895281   1.0000000
N2   N   0.278220049093863   0.555801933258105   0.625251632143268   1.0000000
N2   N   0.111566693074302   0.055774146623376   0.625267259695680   1.0000000
N2   N   0.611612966016469   0.555881045281297   0.626024715665982   1.0000000
N2   N   0.444885708883919   0.055736403512396   0.625316187181935   1.0000000
N2   N   0.944859361403568   0.555761830656027   0.625103503499429   1.0000000
N2   N   0.111533444241771   0.555775621351000   0.124777977818983   1.0000000
N2   N   0.778248811710218   0.055791072521794   0.625083824725883   1.0000000
N2   N   0.278220049093863   0.055751449169165   0.124748367856803   1.0000000
N2   N   0.444914860494042   0.555850044558500   0.124960758212916   1.0000000
N2   N   0.778194145755378   0.555763739544492   0.124488424506755   1.0000000
N2   N   0.611569443926611   0.055762917087376   0.124869741720571   1.0000000
N2   N   0.444914860494042   0.555850044558500   0.625039241787155   1.0000000
N2   N   0.944918849148385   0.055794832615900   0.124868854992352   1.0000000
N2   N   0.278201154094979   0.722445723198190   0.625290585581222   1.0000000
N2   N   0.111605050550379   0.222469191941872   0.625156204307540   1.0000000
N2   N   0.444914860494042   0.222398149268992   0.625039241787155   1.0000000
N2   N   0.611559945457653   0.722503144595768   0.625523511042191   1.0000000
N2   N   0.944859361403568   0.722430864080826   0.625103503499429   1.0000000
N2   N   0.778240191105018   0.222435926105911   0.625144048144809   1.0000000
N2   N   0.111520476514921   0.722426904924099   0.124765438211958   1.0000000
N2   N   0.444885708883919   0.722482638704829   0.124683812818073   1.0000000
N2   N   0.278255740150013   0.222438991650727   0.125275338113316   1.0000000
N2   N   0.778235465242257   0.722480823697246   0.124576630895281   1.0000000
N2   N   0.611559945457653   0.222390134195143   0.124476488957815   1.0000000
N2   N   0.944918849148385   0.222457349865992   0.124868854992352   1.0000000
N2   N   0.111566693074302   0.389125879784325   0.625267259695680   1.0000000
N2   N   0.278201154094979   0.889088764230168   0.625290585581222   1.0000000
N2   N   0.611569443926611   0.889139860172441   0.625130258279486   1.0000000
N2   N   0.445032166546501   0.389182749939961   0.621091565224156   1.0000000
N2   N   0.944894053054870   0.889120605085340   0.625111296866679   1.0000000
N2   N   0.111533444241771   0.889091156224385   0.124777977818983   1.0000000
N2   N   0.778235465242257   0.389087974878225   0.625423369104662   1.0000000
N2   N   0.444884942692053   0.889109138012669   0.124838185332406   1.0000000
N2   N   0.278255740150013   0.389150081832692   0.125275338113316   1.0000000
N2   N   0.278220049093870   0.555801933258105   0.124748367856803   1.0000000
N2   N   0.611612966016469   0.389065254068473   0.123975284334011   1.0000000
N2   N   0.778240191105018   0.889137598332441   0.124855951855147   1.0000000
N2   N   0.944894053054870   0.389106781302702   0.124888703133392   1.0000000
N2   N   0.111533444241771   0.555775621351000   0.625222022181067   1.0000000
N2   N   0.278220049093863   0.055751449169165   0.625251632143268   1.0000000
N2   N   0.778194145755378   0.555763739544492   0.625511575493308   1.0000000
N2   N   0.611569443926611   0.055762917087376   0.625130258279486   1.0000000
N2   N   0.944918849148385   0.055794832615900   0.625131145007612   1.0000000
N2   N   0.058539853195143   0.112791468046133   0.375000000000000   1.0000000
N2   N   0.555918481278279   0.625174470056754   0.375000000000000   1.0000000
N2   N   0.386993329456142   0.102879059012419   0.375000000000000   1.0000000
N2   N   0.884265018730276   0.608799176031855   0.375000000000000   1.0000000
N2   N   0.724464790447599   0.110792126072029   0.375000000000000   1.0000000
N2   N   0.055327827700993   0.777665439788277   0.875000000000000   1.0000000
N2   N   0.388665382701172   0.777664899663475   0.875000000000000   1.0000000
N2   N   0.222002182285191   0.277667757809281   0.875000000000000   1.0000000
N2   N   0.721998486885978   0.777665475545651   0.875000000000000   1.0000000
N2   N   0.555329650951326   0.277664658359539   0.875000000000000   1.0000000
N2   N   0.888666636865240   0.277667034213739   0.875000000000000   1.0000000
N2   N   0.219416349742868   0.776374841538166   0.375000000000000   1.0000000
N2   N   0.058539853195143   0.279081718482388   0.375000000000000   1.0000000
N2   N   0.388074312133523   0.265505317594790   0.375000000000000   1.0000000
N2   N   0.555770660653970   0.784132408559421   0.375000000000000   1.0000000
N2   N   0.888783366851503   0.778890296559638   0.375000000000000   1.0000000
N2   N   0.724139685031761   0.274907332611773   0.375000000000000   1.0000000
N2   N   0.055330292123374   0.944333753694428   0.875000000000000   1.0000000
N2   N   0.388665382701172   0.944333816371004   0.875000000000000   1.0000000
N2   N   0.221999835045967   0.444327573723430   0.875000000000000   1.0000000
N2   N   0.555321188604225   0.444327260968777   0.875000000000000   1.0000000
N2   N   0.721997315636328   0.944331966970833   0.875000000000000   1.0000000
N2   N   0.888666411642560   0.444332028568119   0.875000000000000   1.0000000
N2   N   0.055493930073939   0.444785068980619   0.375000000000000   1.0000000
N2   N   0.219845835820815   0.941314915864431   0.375000000000000   1.0000000
N2   N   0.555768989857999   0.944551161595693   0.375000000000000   1.0000000
N2   N   0.388074312133523   0.455902327872076   0.375000000000000   1.0000000
N2   N   0.891339393197864   0.946834089383536   0.375000000000000   1.0000000
N2   N   0.720895735266383   0.439736310120689   0.375000000000000   1.0000000
N2   N   0.221996838208285   0.610994182852527   0.875000000000000   1.0000000
N2   N   0.055331798013151   0.110999771138490   0.875000000000000   1.0000000
N2   N   0.555329650951326   0.610998325925213   0.875000000000000   1.0000000
N2   N   0.388668459080223   0.111007425367783   0.875000000000000   1.0000000
N2   N   0.888661428597072   0.610997380965207   0.875000000000000   1.0000000
N2   N   0.052557008222725   0.610083445216776   0.375000000000000   1.0000000
N2   N   0.721997315636328   0.110998681998797   0.875000000000000   1.0000000
N2   N   0.221968635632722   0.108739623727633   0.375000000000000   1.0000000
N2   N   0.386993329456142   0.617447603777165   0.375000000000000   1.0000000
N2   N   0.720895735266376   0.614492758479009   0.375000000000000   1.0000000
N2   N   0.555770660653970   0.104971585428093   0.375000000000000   1.0000000
N2   N   0.388668459080223   0.610994367045874   0.875000000000000   1.0000000
N2   N   0.891950455214861   0.112641894274074   0.375000000000000   1.0000000
N2   N   0.221995680600390   0.777664506966827   0.875000000000000   1.0000000
N2   N   0.055331798013151   0.277665360207954   0.875000000000000   1.0000000
N2   N   0.388674326798170   0.277681861797335   0.875000000000000   1.0000000
N2   N   0.555330730246984   0.777666166275176   0.875000000000000   1.0000000
N2   N   0.888666411642560   0.777667716407852   0.875000000000000   1.0000000
N2   N   0.721998486885978   0.277666344673699   0.875000000000000   1.0000000
N2   N   0.052557008222718   0.775806896339100   0.375000000000000   1.0000000
N2   N   0.387098570537011   0.779208329470448   0.375000000000000   1.0000000
N2   N   0.226691292433502   0.280012312883423   0.375000000000000   1.0000000
N2   N   0.724139685031761   0.782565685753281   0.375000000000000   1.0000000
N2   N   0.555918481278279   0.264077344554931   0.375000000000000   1.0000000
N2   N   0.891339393197864   0.277838637147417   0.375000000000000   1.0000000
N2   N   0.055330292123374   0.444329871762225   0.875000000000000   1.0000000
N2   N   0.221996838208285   0.944335988689121   0.875000000000000   1.0000000
N2   N   0.555329452586244   0.944331392959868   0.875000000000000   1.0000000
N2   N   0.388674326798170   0.444325798334164   0.875000000000000   1.0000000
N2   N   0.888666636865240   0.944332935984943   0.875000000000000   1.0000000
N2   N   0.055493930073939   0.944042194426698   0.375000000000000   1.0000000
N2   N   0.721997196635930   0.444331227059356   0.875000000000000   1.0000000
N2   N   0.387098570537011   0.941223574399999   0.375000000000000   1.0000000
N2   N   0.221968635632722   0.446562345238424   0.375000000000000   1.0000000
N2   N   0.219845835820815   0.611864253289619   0.375000000000000   1.0000000
N2   N   0.724464790447599   0.947005997708906   0.375000000000000   1.0000000
N2   N   0.888783366851503   0.443226403625371   0.375000000000000   1.0000000
N2   N   0.055327827700993   0.610995721245987   0.875000000000000   1.0000000
N2   N   0.221999835045967   0.111005594655908   0.875000000000000   1.0000000
N2   N   0.721997196635930   0.610999302909755   0.875000000000000   1.0000000
N2   N   0.555330730246984   0.110997897305250   0.875000000000000   1.0000000
N2   N   0.888666276962881   0.110999805148066   0.875000000000000   1.0000000
B2   B   0.111878083087354   0.055122697537866   0.375000000000000   1.0000000
B2   B   0.612427766828277   0.574588736123542   0.375000000000000   1.0000000
B2   B   0.444215463085023   0.050513594397955   0.375000000000000   1.0000000
B2   B   0.941540784859457   0.554209467100435   0.375000000000000   1.0000000
B2   B   0.781054850311257   0.057194091822275   0.375000000000000   1.0000000
B2   B   0.110884991956260   0.722109162644761   0.875000000000000   1.0000000
B2   B   0.444215647287343   0.722108695565061   0.875000000000000   1.0000000
B2   B   0.277538406992967   0.222106459651031   0.875000000000000   1.0000000
B2   B   0.777559777554653   0.722123424737190   0.875000000000000   1.0000000
B2   B   0.610886567653391   0.222098835310297   0.875000000000000   1.0000000
B2   B   0.944224199580733   0.222108209797731   0.875000000000000   1.0000000
B2   B   0.275845514957203   0.722425758285804   0.375000000000000   1.0000000
B2   B   0.115409011919801   0.224371172626557   0.375000000000000   1.0000000
B2   B   0.442627750821718   0.211529687632518   0.375000000000000   1.0000000
B2   B   0.613398926305665   0.733075409112142   0.375000000000000   1.0000000
B2   B   0.941540784859457   0.720664651092267   0.375000000000000   1.0000000
B2   B   0.780727182379605   0.221290875527093   0.375000000000000   1.0000000
B2   B   0.110884846061907   0.888783356528002   0.875000000000000   1.0000000
B2   B   0.444217330033395   0.888775331683309   0.875000000000000   1.0000000
B2   B   0.277538406992967   0.388765280675279   0.875000000000000   1.0000000
B2   B   0.610891954679425   0.388757506387992   0.875000000000000   1.0000000
B2   B   0.777559282111449   0.888787849425266   0.875000000000000   1.0000000
B2   B   0.944225440314524   0.388770144717793   0.875000000000000   1.0000000
B2   B   0.111878083087354   0.390088718882838   0.375000000000000   1.0000000
B2   B   0.275845514957203   0.886753090004657   0.375000000000000   1.0000000
B2   B   0.613193025638309   0.892900291734448   0.375000000000000   1.0000000
B2   B   0.945170007786037   0.889895857700988   0.375000000000000   1.0000000
B2   B   0.778626841633368   0.386144665835386   0.375000000000000   1.0000000
B2   B   0.277545398008288   0.555432343810600   0.875000000000000   1.0000000
B2   B   0.110883344390078   0.055448743225410   0.875000000000000   1.0000000
B2   B   0.610891954679425   0.555467781624777   0.875000000000000   1.0000000
B2   B   0.444215647287343   0.055440285055595   0.875000000000000   1.0000000
B2   B   0.944224005215850   0.555440313950697   0.875000000000000   1.0000000
B2   B   0.109108375947798   0.555554466028929   0.375000000000000   1.0000000
B2   B   0.777558528871314   0.055445931102261   0.875000000000000   1.0000000
B2   B   0.276119273886155   0.051766731094945   0.375000000000000   1.0000000
B2   B   0.442627750821718   0.564431396522315   0.375000000000000   1.0000000
B2   B   0.772492734338643   0.552913033835898   0.375000000000000   1.0000000
B2   B   0.613193025638309   0.053626067237170   0.375000000000000   1.0000000
B2   B   0.444212256575825   0.555442928492291   0.875000000000000   1.0000000
B2   B   0.947777849904524   0.057755902884931   0.375000000000000   1.0000000
B2   B   0.277549213087045   0.722104613483628   0.875000000000000   1.0000000
B2   B   0.110880800796685   0.222107067065000   0.875000000000000   1.0000000
B2   B   0.444212256575825   0.222102661416793   0.875000000000000   1.0000000
B2   B   0.610886567653391   0.722121065676339   0.875000000000000   1.0000000
B2   B   0.944224005215850   0.722117024598367   0.875000000000000   1.0000000
B2   B   0.777559282111449   0.222104766019534   0.875000000000000   1.0000000
B2   B   0.108377359652913   0.720855346493078   0.375000000000000   1.0000000
B2   B   0.444215463085023   0.727035202020374   0.375000000000000   1.0000000
B2   B   0.279759726837974   0.220428164656223   0.375000000000000   1.0000000
B2   B   0.778626841633368   0.725815509131489   0.375000000000000   1.0000000
B2   B   0.613398926305665   0.213656850526865   0.375000000000000   1.0000000
B2   B   0.947777849904524   0.223355280352831   0.375000000000000   1.0000000
B2   B   0.110883344390078   0.388767934497940   0.875000000000000   1.0000000
B2   B   0.277549213087045   0.888777932936844   0.875000000000000   1.0000000
B2   B   0.610887385263072   0.888781264449186   0.875000000000000   1.0000000
B2   B   0.444195598051678   0.388764465692436   0.875000000000000   1.0000000
B2   B   0.944225440314524   0.888788628930118   0.875000000000000   1.0000000
B2   B   0.109108375947798   0.886887243252163   0.375000000000000   1.0000000
B2   B   0.777559777554653   0.388769686150840   0.875000000000000   1.0000000
B2   B   0.444248380195635   0.888790856764409   0.375000000000000   1.0000000
B2   B   0.279759726837974   0.392664895515101   0.375000000000000   1.0000000
B2   B   0.276119273886155   0.557685876124506   0.375000000000000   1.0000000
B2   B   0.612427766828263   0.371172364038170   0.375000000000000   1.0000000
B2   B   0.780727182379605   0.892769640186048   0.375000000000000   1.0000000
B2   B   0.945170007786037   0.388607483418328   0.375000000000000   1.0000000
B2   B   0.110884846061907   0.555434822867205   0.875000000000000   1.0000000
B2   B   0.277545398008288   0.055446387530965   0.875000000000000   1.0000000
B2   B   0.777555953882221   0.555444643607721   0.875000000000000   1.0000000
B2   B   0.610887385263072   0.055439454147255   0.875000000000000   1.0000000
B2   B   0.944224199580733   0.055449323116351   0.875000000000000   1.0000000
B2   B   0.056042999292424   0.111363504795643   0.124879962800261   1.0000000
B2   B   0.555981508729740   0.611443181336138   0.124439447719798   1.0000000
B2   B   0.389290198915100   0.111238281365859   0.124788105171455   1.0000000
B2   B   0.889345106330170   0.611339219831749   0.124766972405195   1.0000000
B2   B   0.722683289222199   0.111317621612417   0.124903710657098   1.0000000
B2   B   0.055994015735442   0.778003993842528   0.625171208967202   1.0000000
B2   B   0.389306980328654   0.778010764932028   0.625244048009766   1.0000000
B2   B   0.222700680483972   0.278017006908664   0.624663201728486   1.0000000
B2   B   0.722677342720613   0.778060379102959   0.625387068922347   1.0000000
B2   B   0.555981508729740   0.277871660726936   0.625560552280172   1.0000000
B2   B   0.889363477071065   0.277987330189983   0.625101161813857   1.0000000
B2   B   0.222641937637412   0.777987635485359   0.124722685542213   1.0000000
B2   B   0.056042999292424   0.278012827830102   0.124879962800261   1.0000000
B2   B   0.389204942929294   0.277713964473684   0.126583730179754   1.0000000
B2   B   0.555984356661875   0.778049835251603   0.124704455763523   1.0000000
B2   B   0.889357515083948   0.778046727409447   0.124803748118049   1.0000000
B2   B   0.722677342720613   0.277950296951041   0.124612931077646   1.0000000
B2   B   0.056014693808515   0.944691575932073   0.625170614381617   1.0000000
B2   B   0.389306980328654   0.944629548729854   0.625244048009766   1.0000000
B2   B   0.222666390003686   0.444681428409043   0.625056523059591   1.0000000
B2   B   0.556309528844997   0.444821431089163   0.624960526382824   1.0000000
B2   B   0.722683289222199   0.944699000943147   0.625096289342943   1.0000000
B2   B   0.889357515083948   0.444644121007928   0.625196251881994   1.0000000
B2   B   0.056014693808515   0.444656451209913   0.124829385618310   1.0000000
B2   B   0.222649437995880   0.944651141457098   0.124753672314667   1.0000000
B2   B   0.555998524311816   0.944665928822744   0.124888672856647   1.0000000
B2   B   0.389204942929294   0.444824311788939   0.126583730179754   1.0000000
B2   B   0.889363477071101   0.944709480214183   0.124898838186023   1.0000000
B2   B   0.722752525855824   0.444658239545168   0.124146739795927   1.0000000
B2   B   0.222649437995880   0.611331629872061   0.625246327685319   1.0000000
B2   B   0.056042999292424   0.111363504795643   0.625120037199674   1.0000000
B2   B   0.555981508729740   0.611443181336138   0.625560552280172   1.0000000
B2   B   0.389290198915100   0.111238281365859   0.625211894828474   1.0000000
B2   B   0.889345106330170   0.611339219831749   0.625233027594925   1.0000000
B2   B   0.055994015735449   0.611323355226257   0.124828791032834   1.0000000
B2   B   0.722683289222199   0.111317621612417   0.625096289342943   1.0000000
B2   B   0.222666390003686   0.111318294928035   0.124943476940274   1.0000000
B2   B   0.389290198915100   0.611385250882604   0.124788105171455   1.0000000
B2   B   0.722752525855824   0.611427619643687   0.124146739795927   1.0000000
B2   B   0.555984356661875   0.111267854743630   0.124704455763523   1.0000000
B2   B   0.389290198915100   0.611385250882604   0.625211894828474   1.0000000
B2   B   0.889370385257428   0.111351859295410   0.124921909974919   1.0000000
B2   B   0.222641937637412   0.777987635485359   0.625277314457950   1.0000000
B2   B   0.056042999292424   0.278012827830102   0.625120037199674   1.0000000
B2   B   0.389204942929294   0.277713964473684   0.623416269820224   1.0000000
B2   B   0.555984356661875   0.778049835251603   0.625295544236378   1.0000000
B2   B   0.889357515083948   0.778046727409447   0.625196251881994   1.0000000
B2   B   0.722677342720613   0.277950296951041   0.625387068922347   1.0000000
B2   B   0.055994015735449   0.778003993842528   0.124828791032834   1.0000000
B2   B   0.389306980328654   0.778010764932028   0.124755951990178   1.0000000
B2   B   0.222700680483972   0.278017006908664   0.125336798271556   1.0000000
B2   B   0.722677342720613   0.778060379102959   0.124612931077646   1.0000000
B2   B   0.555981508729740   0.277871660726936   0.124439447719798   1.0000000
B2   B   0.889363477071101   0.277987330189983   0.124898838186023   1.0000000
B2   B   0.056014693808515   0.444656451209913   0.625170614381617   1.0000000
B2   B   0.222649437995880   0.944651141457098   0.625246327685319   1.0000000
B2   B   0.555998524311816   0.944665928822744   0.625111327143353   1.0000000
B2   B   0.389204942929294   0.444824311788939   0.623416269820224   1.0000000
B2   B   0.889363477071101   0.944709480214183   0.625101161813857   1.0000000
B2   B   0.056014693808515   0.944691575932073   0.124829385618310   1.0000000
B2   B   0.722752525855895   0.444658239545161   0.625853260203995   1.0000000
B2   B   0.389306980328654   0.944629548729854   0.124755951990178   1.0000000
B2   B   0.222666390003686   0.444681428409043   0.124943476940274   1.0000000
B2   B   0.222649437995880   0.611331629872061   0.124753672314667   1.0000000
B2   B   0.556309528844997   0.444821431089163   0.125039473617297   1.0000000
B2   B   0.722683289222199   0.944699000943147   0.124903710657098   1.0000000
B2   B   0.889357515083948   0.444644121007928   0.124803748118035   1.0000000
B2   B   0.055994015735449   0.611323355226257   0.625171208967202   1.0000000
B2   B   0.222666390003686   0.111318294928035   0.625056523059591   1.0000000
B2   B   0.722752525855895   0.611427619643687   0.625853260203995   1.0000000
B2   B   0.555984356661875   0.111267854743630   0.625295544236378   1.0000000
B2   B   0.889370385257428   0.111351859295410   0.625078090024973   1.0000000


