data_1
_audit_creation_method   'vasp2cif'
_cell_length_a    14.93631414619966
_cell_length_b    14.936314146199727
_cell_length_c    13.341276283792837
_cell_angle_alpha    90.0
_cell_angle_beta    90.0
_cell_angle_gamma    119.99999999999984

_symmetry_space_group_name_H-M    'P 1'
loop_
_atom_site_label
_atom_site_type_symbol
_atom_site_fract_x
_atom_site_fract_y
_atom_site_fract_z
_atom_site_occupancy
As2   As   0.495502978167774   0.414418155750551   0.375000000000000   1.0000000
N2   N   0.111076077197340   0.055527026730328   0.125077756496964   1.0000000
N2   N   0.611095146838681   0.555583978018731   0.123453726829975   1.0000000
N2   N   0.444442670468660   0.055546203197749   0.125073871246131   1.0000000
N2   N   0.944410267524280   0.555540460978885   0.125089906365860   1.0000000
N2   N   0.777777873354639   0.055555603343987   0.125018581433167   1.0000000
N2   N   0.111089669065856   0.722211501199592   0.624972150678359   1.0000000
N2   N   0.444442670468660   0.722229800604248   0.624926128753869   1.0000000
N2   N   0.277707493160366   0.222180381785687   0.625518407794188   1.0000000
N2   N   0.777739624316941   0.722204958073591   0.625001584217303   1.0000000
N2   N   0.611096901178438   0.222197133003434   0.625105579981288   1.0000000
N2   N   0.944425514665040   0.222217229486628   0.624966439681070   1.0000000
N2   N   0.277773518771630   0.722223140074190   0.125032789444715   1.0000000
N2   N   0.111063252425123   0.222198292879226   0.125002283077129   1.0000000
N2   N   0.444431116156356   0.222204064687211   0.124329161883244   1.0000000
N2   N   0.611096901178438   0.722233101508332   0.124894420018711   1.0000000
N2   N   0.944410267524280   0.722203139878729   0.125089906365860   1.0000000
N2   N   0.777770013670966   0.222213534614246   0.125064764601651   1.0000000
N2   N   0.111089379132723   0.888872202279332   0.624974509177494   1.0000000
N2   N   0.444450165247024   0.888891749290177   0.624963451103568   1.0000000
N2   N   0.277707493160366   0.388860444708009   0.625518407794188   1.0000000
N2   N   0.611095146838681   0.388844502153279   0.626546273170025   1.0000000
N2   N   0.777770013670966   0.888889812390048   0.624935235398349   1.0000000
N2   N   0.944418742193777   0.388885008549558   0.624918705179378   1.0000000
N2   N   0.111076077197340   0.388882383800341   0.125077756496964   1.0000000
N2   N   0.277773518771630   0.888883712030769   0.125032789444715   1.0000000
N2   N   0.611114201994643   0.888898528939814   0.125058807786844   1.0000000
N2   N   0.444231852464030   0.388782592898679   0.121824201438452   1.0000000
N2   N   0.944418742193777   0.888867066977548   0.125081294820622   1.0000000
N2   N   0.777739624316941   0.388867999576678   0.124998415782699   1.0000000
N2   N   0.277761518848589   0.555552910814227   0.624978156522865   1.0000000
N2   N   0.111076077197340   0.055527026730328   0.624922243503035   1.0000000
N2   N   0.611095146838681   0.555583978018731   0.626546273170025   1.0000000
N2   N   0.444442670468660   0.055546203197749   0.624926128753869   1.0000000
N2   N   0.944410267524280   0.555540460978885   0.624910093634139   1.0000000
N2   N   0.111089379132723   0.555550510186718   0.125025490822505   1.0000000
N2   N   0.777777873354639   0.055555603343987   0.624981418566831   1.0000000
N2   N   0.277761518848589   0.055541941367698   0.125021843477135   1.0000000
N2   N   0.444431116156356   0.555560384802479   0.124329161883244   1.0000000
N2   N   0.777734907151215   0.555534120242275   0.124808765394207   1.0000000
N2   N   0.611114201994643   0.055549006388160   0.125058807786844   1.0000000
N2   N   0.444431116156356   0.555560384802479   0.625670838116756   1.0000000
N2   N   0.944425514665040   0.055541618511748   0.125033560318929   1.0000000
N2   N   0.277773518771630   0.722223140074190   0.624967210555283   1.0000000
N2   N   0.111063252425123   0.222198292879226   0.624997716922872   1.0000000
N2   N   0.444431116156356   0.222204064687211   0.625670838116756   1.0000000
N2   N   0.611096901178438   0.722233101508332   0.625105579981288   1.0000000
N2   N   0.944410267524280   0.722203139878729   0.624910093634139   1.0000000
N2   N   0.777770013670966   0.222213534614246   0.624935235398349   1.0000000
N2   N   0.111089669065856   0.722211501199592   0.125027849321642   1.0000000
N2   N   0.444442670468660   0.722229800604248   0.125073871246131   1.0000000
N2   N   0.277707493160366   0.222180381785687   0.124481592205813   1.0000000
N2   N   0.777739624316941   0.722204958073591   0.124998415782699   1.0000000
N2   N   0.611096901178438   0.222197133003434   0.124894420018711   1.0000000
N2   N   0.944425514665040   0.222217229486628   0.125033560318929   1.0000000
N2   N   0.111076077197340   0.388882383800341   0.624922243503035   1.0000000
N2   N   0.277773518771630   0.888883712030769   0.624967210555283   1.0000000
N2   N   0.611114201994643   0.888898528939814   0.624941192213157   1.0000000
N2   N   0.444231852464030   0.388782592898679   0.628175798561548   1.0000000
N2   N   0.944418742193777   0.888867066977548   0.624918705179378   1.0000000
N2   N   0.111089379132723   0.888872202279332   0.125025490822505   1.0000000
N2   N   0.777739624316941   0.388867999576678   0.625001584217303   1.0000000
N2   N   0.444450165247024   0.888891749290177   0.125036548896435   1.0000000
N2   N   0.277707493160366   0.388860444708009   0.124481592205813   1.0000000
N2   N   0.277761518848589   0.555552910814227   0.125021843477135   1.0000000
N2   N   0.611095146838681   0.388844502153279   0.123453726829975   1.0000000
N2   N   0.777770013670966   0.888889812390048   0.125064764601651   1.0000000
N2   N   0.944418742193777   0.388885008549558   0.125081294820622   1.0000000
N2   N   0.111089379132723   0.555550510186718   0.624974509177494   1.0000000
N2   N   0.277761518848589   0.055541941367698   0.624978156522865   1.0000000
N2   N   0.777734907151215   0.555534120242275   0.625191234605792   1.0000000
N2   N   0.611114201994643   0.055549006388160   0.624941192213157   1.0000000
N2   N   0.944425514665040   0.055541618511748   0.624966439681070   1.0000000
N2   N   0.059141354262625   0.113135390119643   0.375000000000000   1.0000000
N2   N   0.555464527329396   0.618534862763967   0.375000000000000   1.0000000
N2   N   0.388430530537616   0.106240830635791   0.375000000000000   1.0000000
N2   N   0.886135716089161   0.609734524711252   0.375000000000000   1.0000000
N2   N   0.724449837065545   0.111540704986967   0.375000000000000   1.0000000
N2   N   0.055537275896189   0.777769247668430   0.875000000000000   1.0000000
N2   N   0.388869009826571   0.777770486932959   0.875000000000000   1.0000000
N2   N   0.222209548342656   0.277771440837997   0.875000000000000   1.0000000
N2   N   0.722205578149387   0.777768809762175   0.875000000000000   1.0000000
N2   N   0.555536815990020   0.277764740361666   0.875000000000000   1.0000000
N2   N   0.888874673432264   0.277771946258837   0.875000000000000   1.0000000
N2   N   0.220990782346421   0.777162057839880   0.375000000000000   1.0000000
N2   N   0.059141354262625   0.279339297476318   0.375000000000000   1.0000000
N2   N   0.394109366879302   0.273962038440755   0.375000000000000   1.0000000
N2   N   0.556383399085542   0.781419349751630   0.375000000000000   1.0000000
N2   N   0.888298379622111   0.777704708517092   0.375000000000000   1.0000000
N2   N   0.723658153622215   0.276797590819091   0.375000000000000   1.0000000
N2   N   0.055537073938193   0.944434493941611   0.875000000000000   1.0000000
N2   N   0.388869009826571   0.944431856226946   0.875000000000000   1.0000000
N2   N   0.222204022202833   0.444439301876830   0.875000000000000   1.0000000
N2   N   0.555545420878676   0.444439377106003   0.875000000000000   1.0000000
N2   N   0.722204198029006   0.944435195949761   0.875000000000000   1.0000000
N2   N   0.888875262863107   0.444437688599287   0.875000000000000   1.0000000
N2   N   0.056616188746285   0.444920989257148   0.375000000000000   1.0000000
N2   N   0.221434867750380   0.942976234555728   0.375000000000000   1.0000000
N2   N   0.556537104104221   0.944935218718776   0.375000000000000   1.0000000
N2   N   0.394109366879302   0.453480661771882   0.375000000000000   1.0000000
N2   N   0.891232329119011   0.946197328131107   0.375000000000000   1.0000000
N2   N   0.719213866011882   0.442478822054178   0.375000000000000   1.0000000
N2   N   0.222199927840446   0.611102499652856   0.875000000000000   1.0000000
N2   N   0.055540830594540   0.111102221292634   0.875000000000000   1.0000000
N2   N   0.555536815990020   0.611105408961690   0.875000000000000   1.0000000
N2   N   0.388867936109139   0.111093001356801   0.875000000000000   1.0000000
N2   N   0.888878664875657   0.611105999104500   0.875000000000000   1.0000000
N2   N   0.054040955679241   0.610571490852482   0.375000000000000   1.0000000
N2   N   0.722204198029006   0.111102335412579   0.875000000000000   1.0000000
N2   N   0.225198098261320   0.112157778939838   0.375000000000000   1.0000000
N2   N   0.388430530537616   0.615523033235167   0.375000000000000   1.0000000
N2   N   0.719213866011882   0.610068377291042   0.375000000000000   1.0000000
N2   N   0.556383399085542   0.108297382667248   0.375000000000000   1.0000000
N2   N   0.388867936109139   0.611108268085681   0.875000000000000   1.0000000
N2   N   0.891974176396597   0.112653754864970   0.375000000000000   1.0000000
N2   N   0.222201060527024   0.777767196930179   0.875000000000000   1.0000000
N2   N   0.055540830594540   0.277771942635241   0.875000000000000   1.0000000
N2   N   0.388873153111924   0.277759285169293   0.875000000000000   1.0000000
N2   N   0.555535468329668   0.777769944763452   0.875000000000000   1.0000000
N2   N   0.888875262863107   0.777770907597158   0.875000000000000   1.0000000
N2   N   0.722205578149387   0.277770101720547   0.875000000000000   1.0000000
N2   N   0.054040955679241   0.776802798160093   0.375000000000000   1.0000000
N2   N   0.388492340993957   0.779032706994885   0.375000000000000   1.0000000
N2   N   0.227755418804454   0.280544376068894   0.375000000000000   1.0000000
N2   N   0.723658153622215   0.780193896136457   0.375000000000000   1.0000000
N2   N   0.555464527329396   0.270262997898764   0.375000000000000   1.0000000
N2   N   0.891232329119011   0.278368334321241   0.375000000000000   1.0000000
N2   N   0.055537073938193   0.444435913329911   0.875000000000000   1.0000000
N2   N   0.222199927840446   0.944430761520926   0.875000000000000   1.0000000
N2   N   0.555535187287090   0.944434260310211   0.875000000000000   1.0000000
N2   N   0.388873153111924   0.444447201275966   0.875000000000000   1.0000000
N2   N   0.888874673432264   0.944436060506762   0.875000000000000   1.0000000
N2   N   0.056616188746285   0.945028532822464   0.375000000000000   1.0000000
N2   N   0.722212823593322   0.444440493188295   0.875000000000000   1.0000000
N2   N   0.388492340993957   0.942792967332406   0.375000000000000   1.0000000
N2   N   0.225198098261320   0.446373652654819   0.375000000000000   1.0000000
N2   N   0.221434867750380   0.611791966527988   0.375000000000000   1.0000000
N2   N   0.724449837065545   0.946242465411916   0.375000000000000   1.0000000
N2   N   0.888298379622111   0.443927004438355   0.375000000000000   1.0000000
N2   N   0.055537275896189   0.611101361561096   0.875000000000000   1.0000000
N2   N   0.222204022202833   0.111098053659338   0.875000000000000   1.0000000
N2   N   0.722212823593322   0.611105663738362   0.875000000000000   1.0000000
N2   N   0.555535468329668   0.111098856899552   0.875000000000000   1.0000000
N2   N   0.888874787469620   0.111104060401481   0.875000000000000   1.0000000
B2   B   0.113839068758578   0.056794838539706   0.375000000000000   1.0000000
B2   B   0.609530569836765   0.564172210397020   0.375000000000000   1.0000000
B2   B   0.444974337154481   0.052761275887667   0.375000000000000   1.0000000
B2   B   0.942891006640351   0.554974456651768   0.375000000000000   1.0000000
B2   B   0.780755878395875   0.057044605864605   0.375000000000000   1.0000000
B2   B   0.111094757705908   0.722214045519619   0.875000000000000   1.0000000
B2   B   0.444418581246047   0.722202902761956   0.875000000000000   1.0000000
B2   B   0.277788830757974   0.222231391791623   0.875000000000000   1.0000000
B2   B   0.777750408460520   0.722196969397969   0.875000000000000   1.0000000
B2   B   0.611077370858587   0.222221189092525   0.875000000000000   1.0000000
B2   B   0.944440622750471   0.222220328992412   0.875000000000000   1.0000000
B2   B   0.277200470493545   0.722627941711864   0.375000000000000   1.0000000
B2   B   0.115972031287039   0.224652682310183   0.375000000000000   1.0000000
B2   B   0.444483902214722   0.215600728864226   0.375000000000000   1.0000000
B2   B   0.612932211762029   0.728186062541223   0.375000000000000   1.0000000
B2   B   0.942891006640351   0.721249883321918   0.375000000000000   1.0000000
B2   B   0.780264887724053   0.222378398407572   0.375000000000000   1.0000000
B2   B   0.111097904054270   0.888883740571095   0.875000000000000   1.0000000
B2   B   0.444419823390002   0.888876578361665   0.875000000000000   1.0000000
B2   B   0.277788830757974   0.388890772299679   0.875000000000000   1.0000000
B2   B   0.611069300485409   0.388890737641950   0.875000000000000   1.0000000
B2   B   0.777758346097470   0.888873979673593   0.875000000000000   1.0000000
B2   B   0.944432471736518   0.388885013407771   0.875000000000000   1.0000000
B2   B   0.113839068758578   0.390377563552202   0.375000000000000   1.0000000
B2   B   0.277200470493545   0.887905862115012   0.375000000000000   1.0000000
B2   B   0.613144815925362   0.891443221961986   0.375000000000000   1.0000000
B2   B   0.945442521612816   0.889535772246056   0.375000000000000   1.0000000
B2   B   0.777260169790614   0.387762334918097   0.375000000000000   1.0000000
B2   B   0.277765093953421   0.555543533856012   0.875000000000000   1.0000000
B2   B   0.111110307368562   0.055557663042221   0.875000000000000   1.0000000
B2   B   0.611069300485409   0.555511896176788   0.875000000000000   1.0000000
B2   B   0.444418581246047   0.055549011817426   0.875000000000000   1.0000000
B2   B   0.944428031937870   0.555549418676332   0.875000000000000   1.0000000
B2   B   0.110543463937276   0.555833270573894   0.375000000000000   1.0000000
B2   B   0.777762147545576   0.055547740439456   0.875000000000000   1.0000000
B2   B   0.277846854972124   0.053794233039024   0.375000000000000   1.0000000
B2   B   0.444483902214722   0.562216506683833   0.375000000000000   1.0000000
B2   B   0.774647937331993   0.553990635332664   0.375000000000000   1.0000000
B2   B   0.613144815925362   0.055034927296706   0.375000000000000   1.0000000
B2   B   0.444422589827974   0.555531449743488   0.875000000000000   1.0000000
B2   B   0.947862759649118   0.057524360107085   0.375000000000000   1.0000000
B2   B   0.277757920718756   0.722210455230787   0.875000000000000   1.0000000
B2   B   0.111121514721773   0.222227424027551   0.875000000000000   1.0000000
B2   B   0.444422589827974   0.222224473417822   0.875000000000000   1.0000000
B2   B   0.611077370858587   0.722189515099391   0.875000000000000   1.0000000
B2   B   0.944428031937870   0.722211946594873   0.875000000000000   1.0000000
B2   B   0.777758346097470   0.222217699757207   0.875000000000000   1.0000000
B2   B   0.109836028408143   0.721584680870735   0.375000000000000   1.0000000
B2   B   0.444974337154481   0.725546394600149   0.375000000000000   1.0000000
B2   B   0.283347598947137   0.224569677772152   0.375000000000000   1.0000000
B2   B   0.777260169790614   0.722831168205845   0.375000000000000   1.0000000
B2   B   0.612932211762029   0.218079482554136   0.375000000000000   1.0000000
B2   B   0.947862759649118   0.223671732875369   0.375000000000000   1.0000000
B2   B   0.111110307368562   0.388885977659670   0.875000000000000   1.0000000
B2   B   0.277757920718756   0.888880798821298   0.875000000000000   1.0000000
B2   B   0.611084944114262   0.888872667629788   0.875000000000000   1.0000000
B2   B   0.444443408347508   0.388888370840418   0.875000000000000   1.0000000
B2   B   0.944432471736518   0.888880791662074   0.875000000000000   1.0000000
B2   B   0.110543463937276   0.888043526696711   0.375000000000000   1.0000000
B2   B   0.777750408460520   0.388886772395879   0.875000000000000   1.0000000
B2   B   0.445050032339613   0.889191682836472   0.375000000000000   1.0000000
B2   B   0.283347598947137   0.392111254508313   0.375000000000000   1.0000000
B2   B   0.277846854972124   0.557385955266436   0.375000000000000   1.0000000
B2   B   0.609530569836765   0.378691692773075   0.375000000000000   1.0000000
B2   B   0.780264887724053   0.891219822649811   0.375000000000000   1.0000000
B2   B   0.945442521612816   0.389240082700090   0.375000000000000   1.0000000
B2   B   0.111097904054270   0.555547496816501   0.875000000000000   1.0000000
B2   B   0.277765093953421   0.055554893430745   0.875000000000000   1.0000000
B2   B   0.777748971475541   0.555541152404437   0.875000000000000   1.0000000
B2   B   0.611084944114262   0.055545609817801   0.875000000000000   1.0000000
B2   B   0.944440622750471   0.055553627091393   0.875000000000000   1.0000000
B2   B   0.055557918698755   0.111117694586283   0.125014789820129   1.0000000
B2   B   0.555514634887208   0.611033820032256   0.124153649659796   1.0000000
B2   B   0.388893311817769   0.111161665048750   0.124881910238412   1.0000000
B2   B   0.888813949983796   0.611073641658569   0.124966601876416   1.0000000
B2   B   0.722215850641150   0.111100271380582   0.124991566886356   1.0000000
B2   B   0.055539185388165   0.777773459021237   0.624994389557209   1.0000000
B2   B   0.388889326437088   0.777769584764302   0.624988235606562   1.0000000
B2   B   0.222222530631624   0.277777931982480   0.625330129125863   1.0000000
B2   B   0.722179826850165   0.777763099647988   0.625098693030309   1.0000000
B2   B   0.555514634887208   0.277814148188286   0.625846350340203   1.0000000
B2   B   0.888883003064330   0.277769508199176   0.624987147571910   1.0000000
B2   B   0.222221731349306   0.777777532341321   0.124998420586811   1.0000000
B2   B   0.055557918698755   0.277773557445808   0.125014789820129   1.0000000
B2   B   0.388860594431885   0.277829535119609   0.123647962464111   1.0000000
B2   B   0.555538267681964   0.777767659322756   0.124983293590175   1.0000000
B2   B   0.888845676787965   0.777756974196050   0.125006345586694   1.0000000
B2   B   0.722179826850165   0.277750060535512   0.124901306969692   1.0000000
B2   B   0.055550532955310   0.944448242756320   0.624968041002074   1.0000000
B2   B   0.388889326437088   0.944453075006119   0.624988235606562   1.0000000
B2   B   0.222222381590985   0.444415207413038   0.625045266077147   1.0000000
B2   B   0.555356325132938   0.444344829233133   0.626002462983094   1.0000000
B2   B   0.722215850641150   0.944448912593902   0.625008433113643   1.0000000
B2   B   0.888845676787965   0.444422035925248   0.624993654413307   1.0000000
B2   B   0.055550532955310   0.444435623532319   0.125031958997925   1.0000000
B2   B   0.222229046013134   0.944466471778041   0.125009031931594   1.0000000
B2   B   0.555552223703201   0.944442778518266   0.125012216555591   1.0000000
B2   B   0.388860594431885   0.444364392645612   0.123647962464111   1.0000000
B2   B   0.888883003064330   0.944446828198491   0.125012852428090   1.0000000
B2   B   0.722063328391678   0.444375399967574   0.124334290930552   1.0000000
B2   B   0.222229046013134   0.611095907568428   0.624990968068406   1.0000000
B2   B   0.055557918698755   0.111117694586283   0.624985210179871   1.0000000
B2   B   0.555514634887208   0.611033820032256   0.625846350340203   1.0000000
B2   B   0.388893311817769   0.111161665048750   0.625118089761587   1.0000000
B2   B   0.888813949983796   0.611073641658569   0.625033398123585   1.0000000
B2   B   0.055539185388165   0.611099059700263   0.125005610442792   1.0000000
B2   B   0.722215850641150   0.111100271380582   0.625008433113643   1.0000000
B2   B   0.222222381590985   0.111140507511283   0.124954733922854   1.0000000
B2   B   0.388893311817769   0.611064980102363   0.124881910238412   1.0000000
B2   B   0.722063328391678   0.611021261757441   0.124334290930552   1.0000000
B2   B   0.555538267681964   0.111103941692542   0.124983293590175   1.0000000
B2   B   0.388893311817769   0.611064980102363   0.625118089761587   1.0000000
B2   B   0.888890856977788   0.111112095155566   0.125000972792034   1.0000000
B2   B   0.222221731349306   0.777777532341321   0.625001579413189   1.0000000
B2   B   0.055557918698755   0.277773557445808   0.624985210179871   1.0000000
B2   B   0.388860594431885   0.277829535119609   0.626352037535888   1.0000000
B2   B   0.555538267681964   0.777767659322756   0.625016706409825   1.0000000
B2   B   0.888845676787965   0.777756974196050   0.624993654413307   1.0000000
B2   B   0.722179826850165   0.277750060535512   0.625098693030309   1.0000000
B2   B   0.055539185388165   0.777773459021237   0.125005610442792   1.0000000
B2   B   0.388889326437088   0.777769584764302   0.125011764393439   1.0000000
B2   B   0.222222530631624   0.277777931982480   0.124669870874137   1.0000000
B2   B   0.722179826850165   0.777763099647988   0.124901306969692   1.0000000
B2   B   0.555514634887208   0.277814148188286   0.124153649659796   1.0000000
B2   B   0.888883003064330   0.277769508199176   0.125012852428090   1.0000000
B2   B   0.055550532955310   0.444435623532319   0.624968041002074   1.0000000
B2   B   0.222229046013134   0.944466471778041   0.624990968068406   1.0000000
B2   B   0.555552223703201   0.944442778518266   0.624987783444410   1.0000000
B2   B   0.388860594431885   0.444364392645612   0.626352037535888   1.0000000
B2   B   0.888883003064330   0.944446828198491   0.624987147571910   1.0000000
B2   B   0.055550532955310   0.944448242756320   0.125031958997925   1.0000000
B2   B   0.722063328391678   0.444375399967574   0.625665709069447   1.0000000
B2   B   0.388889326437088   0.944453075006119   0.125011764393439   1.0000000
B2   B   0.222222381590985   0.444415207413038   0.124954733922854   1.0000000
B2   B   0.222229046013134   0.611095907568428   0.125009031931594   1.0000000
B2   B   0.555356325132938   0.444344829233133   0.123997537016905   1.0000000
B2   B   0.722215850641150   0.944448912593902   0.124991566886356   1.0000000
B2   B   0.888845676787965   0.444422035925248   0.125006345586694   1.0000000
B2   B   0.055539185388165   0.611099059700263   0.624994389557209   1.0000000
B2   B   0.222222381590985   0.111140507511283   0.625045266077147   1.0000000
B2   B   0.722063328391678   0.611021261757441   0.625665709069447   1.0000000
B2   B   0.555538267681964   0.111103941692542   0.625016706409825   1.0000000
B2   B   0.888890856977788   0.111112095155566   0.624999027207967   1.0000000


