data_1
_audit_creation_method   'vasp2cif'
_cell_length_a    14.93631414619966
_cell_length_b    14.936314146199727
_cell_length_c    13.341276283792837
_cell_angle_alpha    90.0
_cell_angle_beta    90.0
_cell_angle_gamma    119.99999999999984

_symmetry_space_group_name_H-M    'P 1'
loop_
_atom_site_label
_atom_site_type_symbol
_atom_site_fract_x
_atom_site_fract_y
_atom_site_fract_z
_atom_site_occupancy
In2   In   0.444444444444443   0.388888888888886   0.375000000000000   1.0000000
N2   N   0.111077931642620   0.055524964708390   0.124725057936563   1.0000000
N2   N   0.611147412646652   0.555615435863692   0.125109372010312   1.0000000
N2   N   0.444447033065770   0.055524964708390   0.124725057936563   1.0000000
N2   N   0.944450519540101   0.555565525751982   0.124972599763081   1.0000000
N2   N   0.777777777777779   0.055555555555557   0.124988970053677   1.0000000
N2   N   0.111111111111114   0.722222222222221   0.624991340788690   1.0000000
N2   N   0.444447033065770   0.722255401690714   0.625274942063439   1.0000000
N2   N   0.277717897469644   0.222185920686684   0.624890627989688   1.0000000
N2   N   0.777808368624945   0.722255401690714   0.625274942063439   1.0000000
N2   N   0.611128811767765   0.222204521565570   0.625271181599195   1.0000000
N2   N   0.944424918032178   0.222216158869199   0.625089435064150   1.0000000
N2   N   0.277767807581355   0.722218327121456   0.124972599763081   1.0000000
N2   N   0.111075709797811   0.222204521565570   0.124728818400806   1.0000000
N2   N   0.444468023217039   0.222185920686684   0.125109372010312   1.0000000
N2   N   0.611128811767765   0.722257623535524   0.124728818400806   1.0000000
N2   N   0.944450519540101   0.722218327121456   0.124972599763081   1.0000000
N2   N   0.777791240837021   0.222216158869199   0.124910564935849   1.0000000
N2   N   0.111115006211878   0.888882813793228   0.625027400236918   1.0000000
N2   N   0.444455163373051   0.888894248353190   0.625063205063843   1.0000000
N2   N   0.277717897469644   0.388865310116289   0.624890627989688   1.0000000
N2   N   0.611147412646652   0.388865310116289   0.624890627989688   1.0000000
N2   N   0.777791240837021   0.888908415301151   0.625089435064150   1.0000000
N2   N   0.944439084980139   0.388878169960278   0.625063205063843   1.0000000
N2   N   0.111077931642620   0.388886300267558   0.124725057936563   1.0000000
N2   N   0.277767807581355   0.888882813793228   0.124972599763081   1.0000000
N2   N   0.611117174464138   0.888908415301151   0.124910564935849   1.0000000
N2   N   0.444444444444443   0.388888888888886   0.129885206205498   1.0000000
N2   N   0.944439084980139   0.888894248353190   0.124936794936155   1.0000000
N2   N   0.777808368624945   0.388886300267558   0.124725057936563   1.0000000
N2   N   0.277768809901313   0.555564523432025   0.625183868632244   1.0000000
N2   N   0.111077931642620   0.055524964708390   0.625274942063439   1.0000000
N2   N   0.611147412646652   0.555615435863692   0.624890627989688   1.0000000
N2   N   0.444447033065770   0.055524964708390   0.625274942063439   1.0000000
N2   N   0.944450519540101   0.555565525751982   0.625027400236918   1.0000000
N2   N   0.111115006211878   0.555565525751982   0.124972599763081   1.0000000
N2   N   0.777777777777779   0.055555555555557   0.625011029946322   1.0000000
N2   N   0.277768809901313   0.055537619802625   0.124816131367757   1.0000000
N2   N   0.444468023217039   0.555615435863692   0.125109372010312   1.0000000
N2   N   0.777795713530709   0.555564523432025   0.124816131367757   1.0000000
N2   N   0.611117174464138   0.055542092496313   0.124910564935849   1.0000000
N2   N   0.444468023217039   0.555615435863692   0.624890627989688   1.0000000
N2   N   0.944424918032178   0.055542092496313   0.124910564935849   1.0000000
N2   N   0.277767807581355   0.722218327121456   0.625027400236918   1.0000000
N2   N   0.111075709797811   0.222204521565570   0.625271181599195   1.0000000
N2   N   0.444468023217039   0.222185920686684   0.624890627989688   1.0000000
N2   N   0.611128811767765   0.722257623535524   0.625271181599195   1.0000000
N2   N   0.944450519540101   0.722218327121456   0.625027400236918   1.0000000
N2   N   0.777791240837021   0.222216158869199   0.625089435064150   1.0000000
N2   N   0.111111111111114   0.722222222222221   0.125008659211310   1.0000000
N2   N   0.444447033065770   0.722255401690714   0.124725057936563   1.0000000
N2   N   0.277717897469644   0.222185920686684   0.125109372010312   1.0000000
N2   N   0.777808368624945   0.722255401690714   0.124725057936563   1.0000000
N2   N   0.611128811767765   0.222204521565570   0.124728818400806   1.0000000
N2   N   0.944424918032178   0.222216158869199   0.124910564935849   1.0000000
N2   N   0.111077931642620   0.388886300267558   0.625274942063439   1.0000000
N2   N   0.277767807581355   0.888882813793228   0.625027400236918   1.0000000
N2   N   0.611117174464138   0.888908415301151   0.625089435064150   1.0000000
N2   N   0.444444444444443   0.388888888888886   0.620114793794503   1.0000000
N2   N   0.944439084980139   0.888894248353190   0.625063205063843   1.0000000
N2   N   0.111115006211878   0.888882813793228   0.124972599763081   1.0000000
N2   N   0.777808368624945   0.388886300267558   0.625274942063439   1.0000000
N2   N   0.444455163373051   0.888894248353190   0.124936794936155   1.0000000
N2   N   0.277717897469644   0.388865310116289   0.125109372010312   1.0000000
N2   N   0.277768809901313   0.555564523432025   0.124816131367757   1.0000000
N2   N   0.611147412646652   0.388865310116289   0.125109372010312   1.0000000
N2   N   0.777791240837021   0.888908415301151   0.124910564935849   1.0000000
N2   N   0.944439084980139   0.388878169960278   0.124936794936155   1.0000000
N2   N   0.111115006211878   0.555565525751982   0.625027400236918   1.0000000
N2   N   0.277768809901313   0.055537619802625   0.625183868632244   1.0000000
N2   N   0.777795713530709   0.555564523432025   0.625183868632244   1.0000000
N2   N   0.611117174464138   0.055542092496313   0.625089435064150   1.0000000
N2   N   0.944424918032178   0.055542092496313   0.625089435064150   1.0000000
N2   N   0.053943889797843   0.110081560756314   0.375000000000000   1.0000000
N2   N   0.556270021579559   0.612540043159112   0.375000000000000   1.0000000
N2   N   0.387213148124409   0.101450823580370   0.375000000000000   1.0000000
N2   N   0.892225140144804   0.612779236739074   0.375000000000000   1.0000000
N2   N   0.722516938118236   0.110816395215101   0.375000000000000   1.0000000
N2   N   0.055558147096375   0.777775186236962   0.875000000000000   1.0000000
N2   N   0.388894450968102   0.777780478816060   0.875000000000000   1.0000000
N2   N   0.222229741674178   0.277781537503758   0.875000000000000   1.0000000
N2   N   0.722223883976496   0.777770517918187   0.875000000000000   1.0000000
N2   N   0.555551795829579   0.277781537503758   0.875000000000000   1.0000000
N2   N   0.888886746982515   0.277773493965035   0.875000000000000   1.0000000
N2   N   0.221582915704233   0.777458124518784   0.375000000000000   1.0000000
N2   N   0.053943889797843   0.277195662374865   0.375000000000000   1.0000000
N2   N   0.372573675370425   0.245147350740855   0.375000000000000   1.0000000
N2   N   0.556137670958470   0.779389443535496   0.375000000000000   1.0000000
N2   N   0.891594646879329   0.779974850043540   0.375000000000000   1.0000000
N2   N   0.723251772577023   0.277195662374865   0.375000000000000   1.0000000
N2   N   0.055552854517278   0.944447305485377   0.875000000000000   1.0000000
N2   N   0.388894450968102   0.944447305485377   0.875000000000000   1.0000000
N2   N   0.222214706225640   0.444447346743100   0.875000000000000   1.0000000
N2   N   0.555534230217376   0.444433781775352   0.875000000000000   1.0000000
N2   N   0.722224744211289   0.944449488422577   0.875000000000000   1.0000000
N2   N   0.888886027847951   0.444438882365227   0.875000000000000   1.0000000
N2   N   0.053358483289797   0.444953130169124   0.375000000000000   1.0000000
N2   N   0.220554096594263   0.941108193188525   0.375000000000000   1.0000000
N2   N   0.556025048052687   0.944679190693009   0.375000000000000   1.0000000
N2   N   0.372573675370425   0.460759657962903   0.375000000000000   1.0000000
N2   N   0.888654142640320   0.944679190693009   0.375000000000000   1.0000000
N2   N   0.731882509752966   0.446120185208920   0.375000000000000   1.0000000
N2   N   0.222214749169747   0.611118584163589   0.875000000000000   1.0000000
N2   N   0.055562815415148   0.111109449356840   0.875000000000000   1.0000000
N2   N   0.555551795829579   0.611103591659155   0.875000000000000   1.0000000
N2   N   0.388885986590228   0.111100692815876   0.875000000000000   1.0000000
N2   N   0.888903834993836   0.611118584163589   0.875000000000000   1.0000000
N2   N   0.055875208814551   0.611750417629102   0.375000000000000   1.0000000
N2   N   0.722224744211289   0.111108589122047   0.875000000000000   1.0000000
N2   N   0.214237675455954   0.101450823580370   0.375000000000000   1.0000000
N2   N   0.387213148124409   0.619095657877381   0.375000000000000   1.0000000
N2   N   0.731882509752966   0.619095657877381   0.375000000000000   1.0000000
N2   N   0.556137670958470   0.110081560756314   0.375000000000000   1.0000000
N2   N   0.388885986590228   0.611118627107692   0.875000000000000   1.0000000
N2   N   0.888299457096859   0.110816395215101   0.375000000000000   1.0000000
N2   N   0.222217039140586   0.777775186236962   0.875000000000000   1.0000000
N2   N   0.055562815415148   0.277786699391643   0.875000000000000   1.0000000
N2   N   0.388899551557976   0.277799103115958   0.875000000000000   1.0000000
N2   N   0.555546633941692   0.777770517918187   0.875000000000000   1.0000000
N2   N   0.888886027847951   0.777780478816060   0.875000000000000   1.0000000
N2   N   0.722223883976496   0.277786699391643   0.875000000000000   1.0000000
N2   N   0.055875208814551   0.777458124518784   0.375000000000000   1.0000000
N2   N   0.388380203164205   0.779974850043540   0.375000000000000   1.0000000
N2   N   0.220793290174223   0.277063311753780   0.375000000000000   1.0000000
N2   N   0.723251772577023   0.779389443535496   0.375000000000000   1.0000000
N2   N   0.556270021579559   0.277063311753780   0.375000000000000   1.0000000
N2   N   0.888654142640320   0.277308285280650   0.375000000000000   1.0000000
N2   N   0.055552854517278   0.444438882365227   0.875000000000000   1.0000000
N2   N   0.222214749169747   0.944429498339492   0.875000000000000   1.0000000
N2   N   0.555559839368300   0.944446586350814   0.875000000000000   1.0000000
N2   N   0.388899551557976   0.444433781775352   0.875000000000000   1.0000000
N2   N   0.888886746982515   0.944446586350814   0.875000000000000   1.0000000
N2   N   0.053358483289797   0.941738686454000   0.375000000000000   1.0000000
N2   N   0.722232640517462   0.444447346743100   0.875000000000000   1.0000000
N2   N   0.388380203164205   0.941738686454000   0.375000000000000   1.0000000
N2   N   0.214237675455954   0.446120185208920   0.375000000000000   1.0000000
N2   N   0.220554096594263   0.612779236739074   0.375000000000000   1.0000000
N2   N   0.588185982592478   0.460759657962903   0.375000000000000   1.0000000
N2   N   0.722516938118236   0.945033876236470   0.375000000000000   1.0000000
N2   N   0.891594646879329   0.444953130169124   0.375000000000000   1.0000000
N2   N   0.055558147096375   0.611116294192752   0.875000000000000   1.0000000
N2   N   0.222214706225640   0.111100692815876   0.875000000000000   1.0000000
N2   N   0.722232640517462   0.611118627107692   0.875000000000000   1.0000000
N2   N   0.555546633941692   0.111109449356840   0.875000000000000   1.0000000
N2   N   0.888883844910751   0.111108589122047   0.875000000000000   1.0000000
B2   B   0.105963478584867   0.050869188800836   0.375000000000000   1.0000000
B2   B   0.622942039498940   0.565380714646208   0.375000000000000   1.0000000
B2   B   0.444905710215970   0.050869188800836   0.375000000000000   1.0000000
B2   B   0.945866656080178   0.556002955495662   0.375000000000000   1.0000000
B2   B   0.777777777777779   0.055555555555557   0.375000000000000   1.0000000
B2   B   0.111111111111114   0.722222222222221   0.875000000000000   1.0000000
B2   B   0.444438439598071   0.722227865241150   0.875000000000000   1.0000000
B2   B   0.277716664057870   0.222233955408758   0.875000000000000   1.0000000
B2   B   0.777789425643079   0.722227865241150   0.875000000000000   1.0000000
B2   B   0.611082920332698   0.222250413000637   0.875000000000000   1.0000000
B2   B   0.944408627315504   0.222254275434977   0.875000000000000   1.0000000
B2   B   0.277330377837674   0.723197033917852   0.375000000000000   1.0000000
B2   B   0.109704926166564   0.221519129749946   0.375000000000000   1.0000000
B2   B   0.442438675147272   0.210391293834398   0.375000000000000   1.0000000
B2   B   0.611814203583389   0.723628407166772   0.375000000000000   1.0000000
B2   B   0.945866656080178   0.723197033917852   0.375000000000000   1.0000000
B2   B   0.778009880960703   0.221524980485504   0.375000000000000   1.0000000
B2   B   0.111175412194984   0.888910686449187   0.875000000000000   1.0000000
B2   B   0.444508020445163   0.888920676889245   0.875000000000000   1.0000000
B2   B   0.277716664057870   0.388816041982442   0.875000000000000   1.0000000
B2   B   0.611099377924579   0.388816041982442   0.875000000000000   1.0000000
B2   B   0.777845648119472   0.888924706017825   0.875000000000000   1.0000000
B2   B   0.944412656444084   0.388825312888165   0.875000000000000   1.0000000
B2   B   0.105963478584867   0.388427623117359   0.375000000000000   1.0000000
B2   B   0.277330377837674   0.887466677253150   0.375000000000000   1.0000000
B2   B   0.611808352847833   0.889818233808525   0.375000000000000   1.0000000
B2   B   0.944131870500706   0.889201462832622   0.375000000000000   1.0000000
B2   B   0.782464144532499   0.388427623117359   0.375000000000000   1.0000000
B2   B   0.277732403889597   0.555600929443736   0.875000000000000   1.0000000
B2   B   0.111105468092187   0.055543907690258   0.875000000000000   1.0000000
B2   B   0.611099377924579   0.555616669275463   0.875000000000000   1.0000000
B2   B   0.444438439598071   0.055543907690258   0.875000000000000   1.0000000
B2   B   0.944422646884142   0.555598059079129   0.875000000000000   1.0000000
B2   B   0.110136299415483   0.556002955495662   0.375000000000000   1.0000000
B2   B   0.777777777777779   0.055555555555557   0.875000000000000   1.0000000
B2   B   0.275310469718284   0.050620939436569   0.375000000000000   1.0000000
B2   B   0.442438675147272   0.565380714646208   0.375000000000000   1.0000000
B2   B   0.782712393896767   0.558022863615050   0.375000000000000   1.0000000
B2   B   0.611808352847833   0.055323452372634   0.375000000000000   1.0000000
B2   B   0.444517291350886   0.555616669275463   0.875000000000000   1.0000000
B2   B   0.943515099524803   0.055323452372634   0.375000000000000   1.0000000
B2   B   0.277735274254207   0.722157921138353   0.875000000000000   1.0000000
B2   B   0.111167492667946   0.222250413000637   0.875000000000000   1.0000000
B2   B   0.444517291350886   0.222233955408758   0.875000000000000   1.0000000
B2   B   0.611082920332698   0.722165840665390   0.875000000000000   1.0000000
B2   B   0.944422646884142   0.722157921138353   0.875000000000000   1.0000000
B2   B   0.777845648119472   0.222254275434977   0.875000000000000   1.0000000
B2   B   0.111111111111114   0.722222222222221   0.375000000000000   1.0000000
B2   B   0.444905710215970   0.727369854748472   0.375000000000000   1.0000000
B2   B   0.267952618687127   0.210391293834398   0.375000000000000   1.0000000
B2   B   0.782464144532498   0.727369854748472   0.375000000000000   1.0000000
B2   B   0.611814203583389   0.221519129749946   0.375000000000000   1.0000000
B2   B   0.943515099524803   0.221524980485504   0.375000000000000   1.0000000
B2   B   0.111105468092187   0.388894893735257   0.875000000000000   1.0000000
B2   B   0.277735274254207   0.888910686449187   0.875000000000000   1.0000000
B2   B   0.611079057898357   0.888924706017825   0.875000000000000   1.0000000
B2   B   0.444444444444443   0.388888888888886   0.875000000000000   1.0000000
B2   B   0.944412656444084   0.888920676889245   0.875000000000000   1.0000000
B2   B   0.110136299415483   0.887466677253150   0.375000000000000   1.0000000
B2   B   0.777789425643079   0.388894893735257   0.875000000000000   1.0000000
B2   B   0.445069592331912   0.889201462832622   0.375000000000000   1.0000000
B2   B   0.267952618687127   0.390894658186057   0.375000000000000   1.0000000
B2   B   0.275310469718284   0.558022863615050   0.375000000000000   1.0000000
B2   B   0.622942039498940   0.390894658186057   0.375000000000000   1.0000000
B2   B   0.778009880960703   0.889818233808525   0.375000000000000   1.0000000
B2   B   0.944131870500706   0.388263741001417   0.375000000000000   1.0000000
B2   B   0.111175412194984   0.555598059079129   0.875000000000000   1.0000000
B2   B   0.277732403889597   0.055464807779194   0.875000000000000   1.0000000
B2   B   0.777868525554142   0.555600929443736   0.875000000000000   1.0000000
B2   B   0.611079057898357   0.055487685213862   0.875000000000000   1.0000000
B2   B   0.944408627315504   0.055487685213862   0.875000000000000   1.0000000
B2   B   0.055541619035351   0.111042341218876   0.124808662547337   1.0000000
B2   B   0.555617391586476   0.611234783172953   0.124979731450175   1.0000000
B2   B   0.388900046849199   0.110982311995071   0.124816335394539   1.0000000
B2   B   0.888913800938840   0.611123567136091   0.124914209541452   1.0000000
B2   B   0.722258831265678   0.111074502067658   0.124961937725778   1.0000000
B2   B   0.055592346770388   0.777740986562949   0.625024437487034   1.0000000
B2   B   0.388910264014310   0.777760047568603   0.625114853160344   1.0000000
B2   B   0.222098550160384   0.277715941746859   0.625020268549825   1.0000000
B2   B   0.722290992114460   0.777791714297984   0.625191337452665   1.0000000
B2   B   0.555617391586476   0.277715941746859   0.625020268549825   1.0000000
B2   B   0.888890508896385   0.277781017792777   0.625063321579874   1.0000000
B2   B   0.222148639792560   0.777740986562949   0.124975562512965   1.0000000
B2   B   0.055541619035351   0.277832611149810   0.124808662547337   1.0000000
B2   B   0.388737049858439   0.277474099716886   0.126417169586753   1.0000000
B2   B   0.555500722183524   0.777791714297984   0.124808662547337   1.0000000
B2   B   0.888849783554284   0.777760047568603   0.124885146839657   1.0000000
B2   B   0.722290992114460   0.277832611149810   0.124808662547337   1.0000000
B2   B   0.055573285764733   0.944483549779045   0.625114853160344   1.0000000
B2   B   0.388910264014310   0.944483549779045   0.625114853160344   1.0000000
B2   B   0.222082265145864   0.444433286484129   0.625183664605464   1.0000000
B2   B   0.555859233616450   0.444596283474889   0.623582830413248   1.0000000
B2   B   0.722258831265678   0.944517662531354   0.625038062274223   1.0000000
B2   B   0.888849783554284   0.444423069319018   0.625114853160344   1.0000000
B2   B   0.055573285764733   0.444423069319018   0.124885146839657   1.0000000
B2   B   0.222209766197245   0.944419532394489   0.124914209541452   1.0000000
B2   B   0.555552315540558   0.944442824436943   0.124936678420125   1.0000000
B2   B   0.388737049858439   0.444596283474889   0.126417169586753   1.0000000
B2   B   0.888890508896385   0.944442824436943   0.124936678420125   1.0000000
B2   B   0.722351021338265   0.444433286484129   0.124816335394539   1.0000000
B2   B   0.222209766197245   0.611123567136091   0.625085790458550   1.0000000
B2   B   0.055541619035351   0.111042341218876   0.625191337452665   1.0000000
B2   B   0.555617391586476   0.611234783172953   0.625020268549825   1.0000000
B2   B   0.388900046849199   0.110982311995071   0.625183664605464   1.0000000
B2   B   0.888913800938840   0.611123567136091   0.625085790458550   1.0000000
B2   B   0.055592346770388   0.611184693540774   0.124975562512965   1.0000000
B2   B   0.722258831265678   0.111074502067658   0.625038062274223   1.0000000
B2   B   0.222082265145864   0.110982311995071   0.124816335394539   1.0000000
B2   B   0.388900046849199   0.611251068187474   0.124816335394539   1.0000000
B2   B   0.722351021338265   0.611251068187474   0.124816335394539   1.0000000
B2   B   0.555500722183524   0.111042341218876   0.124808662547337   1.0000000
B2   B   0.388900046849199   0.611251068187474   0.625183664605464   1.0000000
B2   B   0.888815670801974   0.111074502067658   0.124961937725778   1.0000000
B2   B   0.222148639792560   0.777740986562949   0.625024437487034   1.0000000
B2   B   0.055541619035351   0.277832611149810   0.625191337452665   1.0000000
B2   B   0.388737049858439   0.277474099716886   0.623582830413248   1.0000000
B2   B   0.555500722183524   0.777791714297984   0.625191337452665   1.0000000
B2   B   0.888849783554284   0.777760047568603   0.625114853160344   1.0000000
B2   B   0.722290992114460   0.277832611149810   0.625191337452665   1.0000000
B2   B   0.055592346770388   0.777740986562949   0.124975562512965   1.0000000
B2   B   0.388910264014310   0.777760047568603   0.124885146839657   1.0000000
B2   B   0.222098550160384   0.277715941746859   0.124979731450175   1.0000000
B2   B   0.722290992114460   0.777791714297984   0.124808662547337   1.0000000
B2   B   0.555617391586476   0.277715941746859   0.124979731450175   1.0000000
B2   B   0.888890508896385   0.277781017792777   0.124936678420125   1.0000000
B2   B   0.055573285764733   0.444423069319018   0.625114853160344   1.0000000
B2   B   0.222209766197245   0.944419532394489   0.625085790458550   1.0000000
B2   B   0.555552315540558   0.944442824436943   0.625063321579874   1.0000000
B2   B   0.388737049858439   0.444596283474889   0.623582830413248   1.0000000
B2   B   0.888890508896385   0.944442824436943   0.625063321579874   1.0000000
B2   B   0.055573285764733   0.944483549779045   0.124885146839657   1.0000000
B2   B   0.722351021338265   0.444433286484129   0.625183664605464   1.0000000
B2   B   0.388910264014310   0.944483549779045   0.124885146839657   1.0000000
B2   B   0.222082265145864   0.444433286484129   0.124816335394539   1.0000000
B2   B   0.222209766197245   0.611123567136091   0.124914209541452   1.0000000
B2   B   0.555859233616450   0.444596283474889   0.126417169586753   1.0000000
B2   B   0.722258831265678   0.944517662531354   0.124961937725778   1.0000000
B2   B   0.888849783554284   0.444423069319018   0.124885146839657   1.0000000
B2   B   0.055592346770388   0.611184693540774   0.625024437487034   1.0000000
B2   B   0.222082265145864   0.110982311995071   0.625183664605464   1.0000000
B2   B   0.722351021338265   0.611251068187474   0.625183664605464   1.0000000
B2   B   0.555500722183524   0.111042341218876   0.625191337452665   1.0000000
B2   B   0.888815670801974   0.111074502067658   0.625038062274223   1.0000000


