data_1
_audit_creation_method   'vasp2cif'
_cell_length_a    17.52789999999977
_cell_length_b    17.52789999999977
_cell_length_c    15.0
_cell_angle_alpha    90.0
_cell_angle_beta    90.0
_cell_angle_gamma    119.99999999999916

_symmetry_space_group_name_H-M    'P 1'
loop_
_atom_site_label
_atom_site_type_symbol
_atom_site_fract_x
_atom_site_fract_y
_atom_site_fract_z
_atom_site_occupancy
B2   B   0.904918784601028   0.952059314332275   0.119409361151346   1.0000000
B2   B   0.905135393517885   0.095004339856038   0.119632313592538   1.0000000
B2   B   0.905214389040113   0.237917294925466   0.118284284865531   1.0000000
B2   B   0.905280040894151   0.380840483003175   0.115997196542123   1.0000000
B2   B   0.904924616983821   0.523628442867919   0.114457539045097   1.0000000
B2   B   0.904204882805090   0.666186049352601   0.114735513425339   1.0000000
B2   B   0.903681036944737   0.808322114061454   0.116809501528817   1.0000000
B2   B   0.047794551122201   0.952367724917841   0.118168004794545   1.0000000
B2   B   0.048092544707752   0.095230736299349   0.119620985712344   1.0000000
B2   B   0.048092922033150   0.238092780029306   0.118700860637512   1.0000000
B2   B   0.047974594628062   0.380966597123276   0.116020766730215   1.0000000
B2   B   0.047833683314349   0.523822000140975   0.114766075577382   1.0000000
B2   B   0.047639388157139   0.666594720336941   0.115027649421825   1.0000000
B2   B   0.047481983114807   0.809387809749505   0.116410112649963   1.0000000
B2   B   0.190779404170627   0.952674923080940   0.116513341673907   1.0000000
B2   B   0.191836119371303   0.096474930846420   0.116865114820224   1.0000000
B2   B   0.190973270514873   0.238410735523449   0.116879594099341   1.0000000
B2   B   0.190682036522492   0.381143263855728   0.112021902893940   1.0000000
B2   B   0.190545460187347   0.523841175144024   0.109264463862489   1.0000000
B2   B   0.190779660333500   0.666659521464551   0.111111066273112   1.0000000
B2   B   0.190581797044450   0.809584534002432   0.114393508938943   1.0000000
B2   B   0.333558714586867   0.952512635607348   0.114852985736082   1.0000000
B2   B   0.333973861846948   0.095951416781881   0.114683468781915   1.0000000
B2   B   0.336332355724952   0.241231288242507   0.111886445975754   1.0000000
B2   B   0.331948696951451   0.381543607631970   0.098591427396832   1.0000000
B2   B   0.332137479448479   0.522563923273969   0.088453004886326   1.0000000
B2   B   0.333831484750544   0.666303131555314   0.100415501085693   1.0000000
B2   B   0.333502594799578   0.809367900457058   0.111314070142690   1.0000000
B2   B   0.476337833158368   0.952326607462661   0.114721507985736   1.0000000
B2   B   0.476530797805675   0.095238557077943   0.114503212830812   1.0000000
B2   B   0.476954353577788   0.238314219980021   0.111524276549975   1.0000000
B2   B   0.482558684098233   0.385077436672775   0.104942844145694   1.0000000
B2   B   0.477579897634110   0.668002861661133   0.088462237682500   1.0000000
B2   B   0.476310195575157   0.809602765588562   0.109199961146226   1.0000000
B2   B   0.619185932362149   0.952172977398011   0.116070026473388   1.0000000
B2   B   0.619304587299184   0.094870278462841   0.116096657184749   1.0000000
B2   B   0.619560212344399   0.237442314383380   0.113430051579848   1.0000000
B2   B   0.620414680455044   0.379725443249726   0.109370998185758   1.0000000
B2   B   0.615077221444613   0.517606044822386   0.105308335019869   1.0000000
B2   B   0.618624862122915   0.668224663841450   0.098296199793284   1.0000000
B2   B   0.618996909540377   0.809464369776291   0.112057448382406   1.0000000
B2   B   0.762049845972021   0.952032893563148   0.118718580650418   1.0000000
B2   B   0.762217063772475   0.094923892208647   0.118087426879645   1.0000000
B2   B   0.762382802442034   0.237750683225660   0.116105719798195   1.0000000
B2   B   0.762711840245054   0.380586628021696   0.113385095599544   1.0000000
B2   B   0.761850946856019   0.523197450120347   0.111378469418725   1.0000000
B2   B   0.758938942765974   0.663828624935544   0.111726645095018   1.0000000
B2   B   0.761736956490814   0.809162887234260   0.117166798759838   1.0000000
N2   N   0.952140460502514   0.903996069138724   0.117996532636587   1.0000000
N2   N   0.952809609250507   0.047355996435364   0.120140062520827   1.0000000
N2   N   0.952768666927380   0.190260741339404   0.119521532692331   1.0000000
N2   N   0.952664281692615   0.333180827415774   0.117240644446516   1.0000000
N2   N   0.952470166203445   0.476105869579994   0.115158575262314   1.0000000
N2   N   0.952058371891285   0.618831732508932   0.114915772768108   1.0000000
N2   N   0.951874380345602   0.761297340162453   0.116568898095496   1.0000000
N2   N   0.095403866816532   0.904782460553543   0.117108028868637   1.0000000
N2   N   0.096162238813550   0.048004846284864   0.118983595391296   1.0000000
N2   N   0.095707834825562   0.190334704375294   0.119273001930427   1.0000000
N2   N   0.095384245932728   0.333228832211723   0.116346576994170   1.0000000
N2   N   0.095238555980187   0.476196595920049   0.114237028871535   1.0000000
N2   N   0.095296534933768   0.619090163595033   0.114473763129387   1.0000000
N2   N   0.095154189705962   0.761883469185664   0.115156371340437   1.0000000
N2   N   0.238264529561685   0.904989197219433   0.115561645183359   1.0000000
N2   N   0.238849741016358   0.048271325644599   0.116451417360616   1.0000000
N2   N   0.240470008349115   0.192379850791566   0.114670629766188   1.0000000
N2   N   0.237748960862900   0.332772083400689   0.113862964136918   1.0000000
N2   N   0.237635909527527   0.476194587716949   0.106074099020238   1.0000000
N2   N   0.238299064705084   0.619136169138507   0.106433052310580   1.0000000
N2   N   0.238133521876590   0.762025880482677   0.111780200616111   1.0000000
N2   N   0.381062573541946   0.904846170524137   0.114681274339016   1.0000000
N2   N   0.381334011022019   0.048091512608846   0.113863994969950   1.0000000
N2   N   0.382211886206975   0.191904424970190   0.113346559896441   1.0000000
N2   N   0.386342115691494   0.338802115080060   0.106210152143115   1.0000000
N2   N   0.372397839548757   0.470335242154612   0.073259384107923   1.0000000
N2   N   0.381122487642414   0.619014634644011   0.087834104857555   1.0000000
N2   N   0.381011923129028   0.761816876006739   0.106755117153594   1.0000000
N2   N   0.523961990923167   0.904923646125575   0.113598181496203   1.0000000
N2   N   0.524061823259384   0.047687635980230   0.115566270695078   1.0000000
N2   N   0.524355087962830   0.190677532917194   0.113781326837726   1.0000000
N2   N   0.525493879495039   0.334146153667102   0.107661602598096   1.0000000
N2   N   0.529784294431369   0.627728423094077   0.073158437838883   1.0000000
N2   N   0.523948303534043   0.762503443603719   0.106153454578064   1.0000000
N2   N   0.666914131448117   0.904742085102984   0.116851241756572   1.0000000
N2   N   0.666955801524399   0.047476391809442   0.117508703937170   1.0000000
N2   N   0.667076412907039   0.190142862088434   0.114983906914411   1.0000000
N2   N   0.667476581101566   0.332680140471640   0.111757579039599   1.0000000
N2   N   0.665986828395107   0.474667909598546   0.108934173930117   1.0000000
N2   N   0.661364404404780   0.613830331736421   0.105945597753694   1.0000000
N2   N   0.667389819805999   0.762427544084655   0.113422076205664   1.0000000
N2   N   0.809820471910619   0.904428200838371   0.119672898471150   1.0000000
N2   N   0.809868894201901   0.047359394085003   0.118663990016296   1.0000000
N2   N   0.809911921917705   0.190239787736713   0.117905344236851   1.0000000
N2   N   0.809999337958665   0.333068582965192   0.115436929264692   1.0000000
N2   N   0.809496624299693   0.475786588116635   0.113126342607510   1.0000000
N2   N   0.808271672060942   0.617951702622447   0.112293609217273   1.0000000
N2   N   0.807773969892077   0.759655425259506   0.115463018557009   1.0000000
Sn2   Sn   0.486865530411986   0.513213425549104   0.999617296228822   1.0000000


