data_1
_audit_creation_method   'vasp2cif'
_cell_length_a    17.52789999999977
_cell_length_b    17.52789999999977
_cell_length_c    15.0
_cell_angle_alpha    90.0
_cell_angle_beta    90.0
_cell_angle_gamma    119.99999999999916

_symmetry_space_group_name_H-M    'P 1'
loop_
_atom_site_label
_atom_site_type_symbol
_atom_site_fract_x
_atom_site_fract_y
_atom_site_fract_z
_atom_site_occupancy
Sb2   Sb   0.411275134343681   0.475880129998341   0.110481397237261   1.0000000
B2   B   0.908487294364370   0.954962840591756   0.110533906836594   1.0000000
B2   B   0.907449160315723   0.097812140660785   0.110688759667224   1.0000000
B2   B   0.906755636727055   0.240425692206239   0.110774855826267   1.0000000
B2   B   0.905519153536823   0.382366432424674   0.110719597148775   1.0000000
B2   B   0.903728556270001   0.524035755300628   0.110800709913442   1.0000000
B2   B   0.906074922709173   0.666631597892255   0.110900700503324   1.0000000
B2   B   0.908886125704942   0.811721357751601   0.110687074789371   1.0000000
B2   B   0.048523926767330   0.950060776523728   0.110640348635188   1.0000000
B2   B   0.047392034622398   0.092666917351133   0.110851052960621   1.0000000
B2   B   0.049100631901431   0.238308176995478   0.110867358921811   1.0000000
B2   B   0.049710346286392   0.381696806793195   0.110709049247138   1.0000000
B2   B   0.048691600760241   0.523718120169929   0.110663757036876   1.0000000
B2   B   0.048712911141852   0.665437071907688   0.110746863135385   1.0000000
B2   B   0.048800877520174   0.807582882773910   0.110675914617664   1.0000000
B2   B   0.190508935769050   0.947831725360220   0.110667852223503   1.0000000
B2   B   0.187848503531838   0.087521697483762   0.110988810901888   1.0000000
B2   B   0.185884473897238   0.229065144697549   0.110845286704185   1.0000000
B2   B   0.193295119299758   0.379823462961589   0.110553738397002   1.0000000
B2   B   0.193206759055295   0.523909354439025   0.110694076539792   1.0000000
B2   B   0.192683467698427   0.665902999676664   0.110687917364433   1.0000000
B2   B   0.191713565485052   0.807109311149856   0.110595054821404   1.0000000
B2   B   0.334467620542419   0.949129514906296   0.110616528678650   1.0000000
B2   B   0.332490328465581   0.086977095214413   0.111010840737924   1.0000000
B2   B   0.327331992645474   0.220151843223176   0.110864852054750   1.0000000
B2   B   0.322110338330779   0.351368014214561   0.109999085940943   1.0000000
B2   B   0.337932286909590   0.535166779853737   0.110812597535331   1.0000000
B2   B   0.337827027015033   0.671403716295673   0.110965243596820   1.0000000
B2   B   0.335891204008916   0.810006071926441   0.110671217018235   1.0000000
B2   B   0.478951458434705   0.953102387480332   0.110621619031227   1.0000000
B2   B   0.477473755448121   0.093332931659898   0.110732370272463   1.0000000
B2   B   0.474923655236163   0.232668247533747   0.111107025296908   1.0000000
B2   B   0.467547111308246   0.368336031147201   0.110445236830011   1.0000000
B2   B   0.485048911655235   0.671936778189114   0.111050606400921   1.0000000
B2   B   0.480842371306414   0.812665794568515   0.110877411570265   1.0000000
B2   B   0.622964274053742   0.956837869737621   0.110667245569751   1.0000000
B2   B   0.621459069881646   0.097918772698147   0.110607315900970   1.0000000
B2   B   0.619639042673683   0.239886099983382   0.110804912536534   1.0000000
B2   B   0.615699870335116   0.382961920358047   0.110943157984380   1.0000000
B2   B   0.617679659172200   0.537461565560688   0.110776888560741   1.0000000
B2   B   0.633595289272561   0.682167582649475   0.110829706224344   1.0000000
B2   B   0.625594951458917   0.817037925146477   0.110784770942578   1.0000000
B2   B   0.766483455114521   0.957532363353591   0.110562100435093   1.0000000
B2   B   0.764842155221695   0.099008827137291   0.110632755841615   1.0000000
B2   B   0.763350482034110   0.240837741401686   0.110697734441919   1.0000000
B2   B   0.760959704769238   0.382834054013878   0.110820648370628   1.0000000
B2   B   0.758009108678170   0.525367942305096   0.110859944281360   1.0000000
B2   B   0.769246237425505   0.673379984396344   0.110784295128057   1.0000000
B2   B   0.770015682786170   0.817408459461959   0.110594005337245   1.0000000
N2   N   0.954923342812307   0.905910559141724   0.110552130820266   1.0000000
N2   N   0.953835284776132   0.048835281902392   0.110641852412516   1.0000000
N2   N   0.954242916059562   0.192574910897621   0.110800290006236   1.0000000
N2   N   0.954087527702845   0.335210354647471   0.110732562025688   1.0000000
N2   N   0.952823181027833   0.477105332328277   0.110683430660619   1.0000000
N2   N   0.953478206907046   0.618880375646461   0.110858694069450   1.0000000
N2   N   0.954391288024309   0.761834944215589   0.110796605176406   1.0000000
N2   N   0.095829049051876   0.902005008736973   0.110588226698956   1.0000000
N2   N   0.093936218989151   0.043648839433709   0.110797009276089   1.0000000
N2   N   0.092621797448358   0.186365086505232   0.110984742637055   1.0000000
N2   N   0.097256126033387   0.333706715348948   0.110725436635729   1.0000000
N2   N   0.097225976817504   0.476738402130278   0.110630917966837   1.0000000
N2   N   0.096971686570009   0.618581753837061   0.110655703223444   1.0000000
N2   N   0.096565940359719   0.760200025853320   0.110651158247291   1.0000000
N2   N   0.239154525846319   0.901552537940215   0.110562955347031   1.0000000
N2   N   0.237201122537874   0.041456256395254   0.110857936946883   1.0000000
N2   N   0.232910347737612   0.180007693658600   0.111087304405268   1.0000000
N2   N   0.231438098806717   0.322462320835390   0.110339319082309   1.0000000
N2   N   0.241504042773367   0.476811098418930   0.110622136359092   1.0000000
N2   N   0.241318668639733   0.619826359672367   0.110783498416460   1.0000000
N2   N   0.240281463560816   0.760975524568481   0.110603661702424   1.0000000
N2   N   0.383578481705296   0.904269736520433   0.110563638246927   1.0000000
N2   N   0.382145319313994   0.042844817944881   0.110710193939266   1.0000000
N2   N   0.379641791852682   0.179369052171937   0.111321536186589   1.0000000
N2   N   0.373044072959577   0.309802814894189   0.109958368162709   1.0000000
N2   N   0.387868791019958   0.628684710980546   0.111101235274811   1.0000000
N2   N   0.385218500184599   0.765632932285393   0.110864396093664   1.0000000
N2   N   0.527900311455931   0.907679133668874   0.110705325665652   1.0000000
N2   N   0.526392380731011   0.047916109521222   0.110576254291647   1.0000000
N2   N   0.524645528753308   0.187988877765131   0.110858647621052   1.0000000
N2   N   0.520657693424761   0.327323526663746   0.111035473965718   1.0000000
N2   N   0.535451224298434   0.536929904469289   0.110785313811514   1.0000000
N2   N   0.542385873085329   0.635064108036535   0.110986661792568   1.0000000
N2   N   0.530610841536004   0.767819164976916   0.110957800694572   1.0000000
N2   N   0.671886883144854   0.911414470037101   0.110637505285610   1.0000000
N2   N   0.669947214035999   0.051615012372533   0.110594112888809   1.0000000
N2   N   0.668332731771438   0.193047915106273   0.110650346256194   1.0000000
N2   N   0.665696996424680   0.335635373196172   0.110873041915894   1.0000000
N2   N   0.661050992200209   0.479881618770400   0.110836629746546   1.0000000
N2   N   0.678047811438359   0.632176481927125   0.110762545591471   1.0000000
N2   N   0.677313412297377   0.774818578355413   0.110701831582220   1.0000000
N2   N   0.815148070816294   0.911093011053382   0.110461215633652   1.0000000
N2   N   0.812922581204961   0.052022521864028   0.110586511381657   1.0000000
N2   N   0.811706800412664   0.193767654023168   0.110677312535295   1.0000000
N2   N   0.810069990916684   0.335718127498940   0.110725499784837   1.0000000
N2   N   0.807718052959219   0.477810306516020   0.110820045735980   1.0000000
N2   N   0.811700066187607   0.620974880032282   0.110864275826685   1.0000000
N2   N   0.815945573405294   0.768055066816917   0.110662638231624   1.0000000


