data_1
_audit_creation_method   'vasp2cif'
_cell_length_a    17.52789999999977
_cell_length_b    17.52789999999977
_cell_length_c    15.0
_cell_angle_alpha    90.0
_cell_angle_beta    90.0
_cell_angle_gamma    119.99999999999916

_symmetry_space_group_name_H-M    'P 1'
loop_
_atom_site_label
_atom_site_type_symbol
_atom_site_fract_x
_atom_site_fract_y
_atom_site_fract_z
_atom_site_occupancy
In2   In   0.434378048095666   0.502904226671835   0.111383883904535   1.0000000
B2   B   0.905152907279097   0.952766598115972   0.111004493740393   1.0000000
B2   B   0.905994903347902   0.096103095964465   0.111031382120136   1.0000000
B2   B   0.906240234705407   0.238834464198206   0.111085757698731   1.0000000
B2   B   0.905994903347902   0.381320501074433   0.111031382120136   1.0000000
B2   B   0.905152907279097   0.523816714411127   0.111004493740393   1.0000000
B2   B   0.903678148281270   0.666224147500338   0.111050610088292   1.0000000
B2   B   0.903678148281270   0.808884406028933   0.111050610088292   1.0000000
B2   B   0.046930700052171   0.951640741614719   0.111009047088991   1.0000000
B2   B   0.047716257967658   0.094811604634278   0.110999047198012   1.0000000
B2   B   0.048758586845701   0.238663459297558   0.111016493430118   1.0000000
B2   B   0.048758586845701   0.381525532795144   0.111016493430118   1.0000000
B2   B   0.047716257967658   0.524335058581375   0.110999047198012   1.0000000
B2   B   0.046930700052171   0.666722075241449   0.111009047088991   1.0000000
B2   B   0.046661009466204   0.809046563135103   0.110976085899197   1.0000000
B2   B   0.189748006556249   0.951553359242046   0.110995720543000   1.0000000
B2   B   0.189946122356312   0.093756818843062   0.111055807692527   1.0000000
B2   B   0.189967407280896   0.236384377761217   0.111017826123362   1.0000000
B2   B   0.191862519381976   0.381646462314488   0.111008837947369   1.0000000
B2   B   0.189967407280896   0.525013434767680   0.111017826123362   1.0000000
B2   B   0.189946122356312   0.667619708761244   0.111055807692527   1.0000000
B2   B   0.189748006556249   0.809626764118206   0.110995720543000   1.0000000
B2   B   0.333053935060994   0.952243025932000   0.111023748703008   1.0000000
B2   B   0.333120885218014   0.092910111282111   0.111069710779155   1.0000000
B2   B   0.333274227003642   0.233163432333370   0.111050030613554   1.0000000
B2   B   0.330554169100553   0.369854466772470   0.111128331457197   1.0000000
B2   B   0.330554169100553   0.532130107575084   0.111128331457197   1.0000000
B2   B   0.333274227003642   0.671541199917272   0.111050030613554   1.0000000
B2   B   0.333120885218014   0.811641179182902   0.111069710779155   1.0000000
B2   B   0.476820717259764   0.954016293581422   0.111004186776350   1.0000000
B2   B   0.476820717259764   0.094234828925342   0.111004186776350   1.0000000
B2   B   0.477021755920756   0.234268099911766   0.111020708793113   1.0000000
B2   B   0.478479137095396   0.374322838697498   0.111034750849266   1.0000000
B2   B   0.478479137095396   0.675586703644897   0.111034750849266   1.0000000
B2   B   0.477021755920756   0.814184061255996   0.111020708793113   1.0000000
B2   B   0.620525299243302   0.954522921646636   0.110990558416332   1.0000000
B2   B   0.620417904463625   0.095923299077308   0.110983822056864   1.0000000
B2   B   0.620525299243302   0.237432782843667   0.110990558416332   1.0000000
B2   B   0.620665713544091   0.379286772949250   0.110999335181472   1.0000000
B2   B   0.618598553908321   0.520861105604400   0.111019900505447   1.0000000
B2   B   0.618598553908321   0.669167853551915   0.111019900505447   1.0000000
B2   B   0.620665713544091   0.812809345841841   0.110999335181472   1.0000000
B2   B   0.763328032270089   0.954016885453457   0.110983935587322   1.0000000
B2   B   0.763481096086690   0.096397324479164   0.111027441689409   1.0000000
B2   B   0.763481096086690   0.238512465298523   0.111027441689409   1.0000000
B2   B   0.763328032270089   0.380741552063630   0.110983935587322   1.0000000
B2   B   0.762523733917626   0.523130470735582   0.111039647553189   1.0000000
B2   B   0.759643407415303   0.665536906331649   0.111095241577093   1.0000000
B2   B   0.762523733917626   0.810823668430045   0.111039647553189   1.0000000
N2   N   0.951927689024155   0.904356318308383   0.111006161202113   1.0000000
N2   N   0.952842811179703   0.047845446506738   0.110982558351514   1.0000000
N2   N   0.953559869633619   0.191148115485663   0.111037916059116   1.0000000
N2   N   0.953559869633619   0.333838736265954   0.111037916059116   1.0000000
N2   N   0.952842811179703   0.476424346790963   0.110982558351514   1.0000000
N2   N   0.951927689024155   0.619000064390769   0.111006161202113   1.0000000
N2   N   0.951615824267751   0.761522258971375   0.111007452795097   1.0000000
N2   N   0.094513945712046   0.904087283076659   0.110961454636437   1.0000000
N2   N   0.094704528739073   0.046583745468916   0.111000214718879   1.0000000
N2   N   0.095003121639618   0.189616178052351   0.110976258187907   1.0000000
N2   N   0.096080239328863   0.333754466501432   0.110980830086143   1.0000000
N2   N   0.095003121639618   0.476815637261268   0.110976258187907   1.0000000
N2   N   0.094704528739073   0.619549476945159   0.111000214718879   1.0000000
N2   N   0.094513945712046   0.761857067866394   0.110961454636437   1.0000000
N2   N   0.237640962024436   0.904535683627716   0.110971403615632   1.0000000
N2   N   0.237637152614186   0.046135367198936   0.111034989851572   1.0000000
N2   N   0.237479768982056   0.188050008817702   0.111042428735998   1.0000000
N2   N   0.236802284804625   0.331030990854277   0.111030206707289   1.0000000
N2   N   0.236802284804625   0.477199987624343   0.111030206707289   1.0000000
N2   N   0.237479768982056   0.620858453839350   0.111042428735998   1.0000000
N2   N   0.237637152614186   0.762930479090252   0.111034989851572   1.0000000
N2   N   0.381347649477871   0.906258126488354   0.111021397875087   1.0000000
N2   N   0.381347649477871   0.046518216664520   0.111021397875087   1.0000000
N2   N   0.381450792605264   0.186553608516111   0.111034733458668   1.0000000
N2   N   0.381640533946970   0.325853188844578   0.111032661246043   1.0000000
N2   N   0.381640533946970   0.627216038777386   0.111032661246043   1.0000000
N2   N   0.381450792605264   0.766325877764156   0.111034733458668   1.0000000
N2   N   0.525337574254212   0.908477119449170   0.110982903894174   1.0000000
N2   N   0.525181451448110   0.048304216783558   0.110968151431251   1.0000000
N2   N   0.525337574254212   0.188289148480046   0.110982903894174   1.0000000
N2   N   0.525866060687587   0.327621931924368   0.111002845090213   1.0000000
N2   N   0.527389537513193   0.465963734207306   0.110991487813886   1.0000000
N2   N   0.527389537513193   0.632854496980882   0.110991487813886   1.0000000
N2   N   0.525866060687587   0.769672822438221   0.111002845090213   1.0000000
N2   N   0.668656802669126   0.907841313248388   0.110970412782189   1.0000000
N2   N   0.668486789861895   0.049277216337922   0.110974803218100   1.0000000
N2   N   0.668486789861895   0.190636555642980   0.110974803218100   1.0000000
N2   N   0.668656802669126   0.332244183095741   0.110970412782189   1.0000000
N2   N   0.668651075398215   0.474652548480355   0.110994657963810   1.0000000
N2   N   0.664880812517730   0.618154753096861   0.111036226823796   1.0000000
N2   N   0.668651075398215   0.765427220592861   0.110994657963810   1.0000000
N2   N   0.810597911715646   0.906175957375982   0.110987022683521   1.0000000
N2   N   0.811087230318198   0.049059603346558   0.110996616507733   1.0000000
N2   N   0.811191916517141   0.191309449317573   0.111060166735916   1.0000000
N2   N   0.811087230318198   0.333454609089646   0.110996616507733   1.0000000
N2   N   0.810597911715646   0.475850648013667   0.110987022683521   1.0000000
N2   N   0.808871753582152   0.618617856577179   0.111070574990793   1.0000000
N2   N   0.808871753582152   0.761682590679973   0.111070574990793   1.0000000


