data_1
_audit_creation_method   'vasp2cif'
_cell_length_a    17.52789999999977
_cell_length_b    17.52789999999977
_cell_length_c    15.0
_cell_angle_alpha    90.0
_cell_angle_beta    90.0
_cell_angle_gamma    119.99999999999916

_symmetry_space_group_name_H-M    'P 1'
loop_
_atom_site_label
_atom_site_type_symbol
_atom_site_fract_x
_atom_site_fract_y
_atom_site_fract_z
_atom_site_occupancy
In2   In   0.410572472977796   0.481148017319774   0.110827083906166   1.0000000
B2   B   0.908343437616503   0.954819691276507   0.110635756418290   1.0000000
B2   B   0.907154026441600   0.097493884232515   0.110490362515344   1.0000000
B2   B   0.906490144887433   0.240173971345099   0.110609333679325   1.0000000
B2   B   0.905415017457309   0.382393253997789   0.110499894460246   1.0000000
B2   B   0.904166607021160   0.524538461125706   0.110668568176464   1.0000000
B2   B   0.907262450666453   0.667481991374103   0.111097173006052   1.0000000
B2   B   0.909821491476176   0.812477254505806   0.110995773604139   1.0000000
B2   B   0.048860422759825   0.950524113016466   0.110546511745669   1.0000000
B2   B   0.047249073665082   0.092697879536197   0.110325944046605   1.0000000
B2   B   0.048810793122674   0.238192345945055   0.111001712327994   1.0000000
B2   B   0.049125213635724   0.381909347658669   0.110929964919563   1.0000000
B2   B   0.047719305309605   0.524278917778357   0.110233118246403   1.0000000
B2   B   0.048927185783151   0.666254017146791   0.110442868238223   1.0000000
B2   B   0.049385011416440   0.808366615938924   0.110807573389112   1.0000000
B2   B   0.190797065803449   0.948358229154903   0.110828820318636   1.0000000
B2   B   0.187805683329623   0.087521244391492   0.110658559875910   1.0000000
B2   B   0.185748648655175   0.229153145477172   0.111509263593757   1.0000000
B2   B   0.192701008753837   0.380309472169118   0.112288567168261   1.0000000
B2   B   0.190477001528626   0.524982058132409   0.110767070016012   1.0000000
B2   B   0.191963479841051   0.666977098026678   0.109757899627757   1.0000000
B2   B   0.191845412700964   0.807964511846830   0.110434875267470   1.0000000
B2   B   0.334634466107512   0.949567603738281   0.110961980351784   1.0000000
B2   B   0.332656531563306   0.087048443049770   0.110936299649795   1.0000000
B2   B   0.326559353723491   0.218983334976402   0.109969000454360   1.0000000
B2   B   0.322783345684741   0.352123891241662   0.111416372238143   1.0000000
B2   B   0.332363940021045   0.536750909452620   0.111688709598604   1.0000000
B2   B   0.336369191652599   0.672692866740424   0.109831504758570   1.0000000
B2   B   0.335697650613326   0.810766186655234   0.109729539416566   1.0000000
B2   B   0.478975404676808   0.952698964503835   0.110520543774233   1.0000000
B2   B   0.477676264261983   0.093246536955452   0.111138242262960   1.0000000
B2   B   0.475300026107550   0.232558536531561   0.110737247561440   1.0000000
B2   B   0.465249124022416   0.363716839155436   0.109261596896483   1.0000000
B2   B   0.483835868872406   0.669071872414515   0.111082039454843   1.0000000
B2   B   0.480519349325798   0.811508909958838   0.109816070339774   1.0000000
B2   B   0.622722976584268   0.955997688696651   0.110545697825981   1.0000000
B2   B   0.621450056549580   0.097487336687216   0.110860444616940   1.0000000
B2   B   0.620068170117797   0.239818825717591   0.111020447620303   1.0000000
B2   B   0.617598350302587   0.383821161702660   0.111143778139032   1.0000000
B2   B   0.623476695571689   0.539923128761426   0.111651557268283   1.0000000
B2   B   0.633696991134979   0.680397071166575   0.110608657220817   1.0000000
B2   B   0.625165287660120   0.815627651729709   0.110374099987186   1.0000000
B2   B   0.766098033604381   0.956848239977550   0.110759809091443   1.0000000
B2   B   0.764577689475902   0.098473083189392   0.110724346518215   1.0000000
B2   B   0.763373761539297   0.240562563754814   0.110717995343234   1.0000000
B2   B   0.761591810881675   0.382979761748586   0.110912667970391   1.0000000
B2   B   0.759996998656223   0.526127289373166   0.111222561219229   1.0000000
B2   B   0.771599317889163   0.674610711053358   0.110803328540592   1.0000000
B2   B   0.769812947502866   0.816812959198604   0.110708883797812   1.0000000
N2   N   0.955328153133571   0.906379824274253   0.110685502242074   1.0000000
N2   N   0.953728821179999   0.048734776157347   0.110254372797325   1.0000000
N2   N   0.954159639403466   0.192450203853185   0.110535346294931   1.0000000
N2   N   0.953850940866133   0.335100323889302   0.110550886419298   1.0000000
N2   N   0.952368048617558   0.477206218198248   0.110341956426827   1.0000000
N2   N   0.953865840789966   0.619350236489353   0.110753067568476   1.0000000
N2   N   0.955043595096693   0.762492196510296   0.111014035887019   1.0000000
N2   N   0.096292699548428   0.902730543175817   0.110696462406236   1.0000000
N2   N   0.094236821155615   0.044150330770102   0.110290631184431   1.0000000
N2   N   0.092801477492052   0.186638083098514   0.110703815313658   1.0000000
N2   N   0.097385693873875   0.334042716120830   0.111534492484726   1.0000000
N2   N   0.095613076434417   0.477021739195469   0.110544193773921   1.0000000
N2   N   0.096615944667044   0.619139176742639   0.109981951935152   1.0000000
N2   N   0.096873892978234   0.760931998408888   0.110569859510267   1.0000000
N2   N   0.239491474887096   0.902318477590044   0.110882552508768   1.0000000
N2   N   0.237650065892045   0.042175395601200   0.110715973782450   1.0000000
N2   N   0.233205755319493   0.180466654398675   0.110883199159383   1.0000000
N2   N   0.232451244099701   0.323059104944893   0.112835839909448   1.0000000
N2   N   0.238615145106739   0.478041468806342   0.111905422908629   1.0000000
N2   N   0.240350760337151   0.620665322383807   0.109782245425022   1.0000000
N2   N   0.240252694319560   0.761768820728459   0.109783146498018   1.0000000
N2   N   0.383697712402294   0.904707414768835   0.110447582551736   1.0000000
N2   N   0.382467385597473   0.043392043437317   0.111235318477865   1.0000000
N2   N   0.380047095493465   0.180028543804305   0.110507977748160   1.0000000
N2   N   0.372406830190876   0.309892490859375   0.108655941532960   1.0000000
N2   N   0.385961676280192   0.628690274519641   0.110863548198506   1.0000000
N2   N   0.384880607465890   0.766052018651152   0.109175544968091   1.0000000
N2   N   0.527599826567947   0.906531980441438   0.110150977362452   1.0000000
N2   N   0.526394724317091   0.047683940562006   0.110900201363699   1.0000000
N2   N   0.524920435063493   0.188408519866574   0.111056394671536   1.0000000
N2   N   0.521656343601904   0.328577156442577   0.110545742208543   1.0000000
N2   N   0.537632056899699   0.528928002466679   0.113683037233182   1.0000000
N2   N   0.541964090612591   0.629642787310468   0.111860435912105   1.0000000
N2   N   0.529814589848737   0.765000705322579   0.110170491066018   1.0000000
N2   N   0.671255867473974   0.910021028312536   0.110594084861812   1.0000000
N2   N   0.669630093409573   0.050872244683409   0.110751047173577   1.0000000
N2   N   0.668284155359025   0.192831597949885   0.110847289558679   1.0000000
N2   N   0.666043239818645   0.335861216853837   0.111100022520703   1.0000000
N2   N   0.662769365866804   0.480429040401585   0.111432356834766   1.0000000
N2   N   0.680325519342222   0.632994393819223   0.110258309862607   1.0000000
N2   N   0.676478613715882   0.772956733586090   0.110238064149789   1.0000000
N2   N   0.814735838450220   0.910394028311913   0.110898207989537   1.0000000
N2   N   0.812563054241032   0.051396084068256   0.110679486050002   1.0000000
N2   N   0.811493554269771   0.193367313362848   0.110599432603007   1.0000000
N2   N   0.810025231517051   0.335573113774912   0.110616650050582   1.0000000
N2   N   0.808241453601693   0.477990381170585   0.110928643115731   1.0000000
N2   N   0.812874926818454   0.621506347926377   0.111229980023188   1.0000000
N2   N   0.816814349531885   0.768571095569788   0.110976291218884   1.0000000


