data_1
_audit_creation_method   'vasp2cif'
_cell_length_a    14.93631414619966
_cell_length_b    14.936314146199727
_cell_length_c    13.341276283792837
_cell_angle_alpha    90.0
_cell_angle_beta    90.0
_cell_angle_gamma    119.99999999999984

_symmetry_space_group_name_H-M    'P 1'
loop_
_atom_site_label
_atom_site_type_symbol
_atom_site_fract_x
_atom_site_fract_y
_atom_site_fract_z
_atom_site_occupancy
C2   C   0.622132355203326   0.393161210589727   0.375000000000000   1.0000000
O2   O   0.425857927723738   0.382075809515018   0.375000000000000   1.0000000
N2   N   0.582412480914545   0.450454121071520   0.375000000000000   1.0000000
N2   N   0.111383421005911   0.056799895599147   0.124831736841075   1.0000000
N2   N   0.611511427326508   0.556916068375619   0.124493775535154   1.0000000
N2   N   0.444796187419497   0.056871350005932   0.124691823817696   1.0000000
N2   N   0.944773193100538   0.556810929931729   0.124829393907823   1.0000000
N2   N   0.778075475818947   0.056800638689516   0.124962005832580   1.0000000
N2   N   0.111449496403444   0.723497687544075   0.624997450060140   1.0000000
N2   N   0.444759487312772   0.723446336486075   0.625256963452632   1.0000000
N2   N   0.278017437505118   0.223458129289169   0.625421185588023   1.0000000
N2   N   0.778140764523018   0.723555378018563   0.625633466098569   1.0000000
N2   N   0.611472150020924   0.223513037158992   0.625367923648850   1.0000000
N2   N   0.944734624773070   0.223464522370892   0.625099254238045   1.0000000
N2   N   0.278112930116458   0.723491011462248   0.124930541931080   1.0000000
N2   N   0.111347959140203   0.223442682662602   0.124716049587381   1.0000000
N2   N   0.444782541179124   0.223543332933811   0.124628161416721   1.0000000
N2   N   0.611455913484845   0.723502876151265   0.124503616488469   1.0000000
N2   N   0.944776869598030   0.723492352468641   0.124801190623933   1.0000000
N2   N   0.778111312558364   0.223458979412454   0.124692233085790   1.0000000
N2   N   0.111444069776368   0.890170618820134   0.625052517567508   1.0000000
N2   N   0.444774305789224   0.890160310664449   0.625107649938174   1.0000000
N2   N   0.278035277573546   0.390083968752105   0.625355554299579   1.0000000
N2   N   0.611474482639922   0.390150429328082   0.625019517113609   1.0000000
N2   N   0.778104787825392   0.890187489337914   0.625242837117795   1.0000000
N2   N   0.944766041008313   0.390135592714670   0.625157443843685   1.0000000
N2   N   0.111404068665859   0.390128506292014   0.124801082889326   1.0000000
N2   N   0.278129014760616   0.890190791231814   0.124908524636044   1.0000000
N2   N   0.611415774151980   0.890138437390912   0.124855644280314   1.0000000
N2   N   0.444715555688752   0.390102341290679   0.124957352796007   1.0000000
N2   N   0.944763608733590   0.890171844071657   0.124874311015020   1.0000000
N2   N   0.778117404606465   0.390128509004002   0.124619495929709   1.0000000
N2   N   0.278093550174015   0.556789379495301   0.625232814981014   1.0000000
N2   N   0.111383421005913   0.056799895599144   0.625168263158946   1.0000000
N2   N   0.611511427326508   0.556916068375619   0.625506224464775   1.0000000
N2   N   0.444796187419497   0.056871350005933   0.625308176182287   1.0000000
N2   N   0.944773193100538   0.556810929931729   0.625170606092174   1.0000000
N2   N   0.111438938907271   0.556813373361191   0.124935781915917   1.0000000
N2   N   0.778075475818947   0.056800638689517   0.625037994167458   1.0000000
N2   N   0.278109555422220   0.056858356453131   0.124717183884932   1.0000000
N2   N   0.444763546703656   0.556756905767218   0.124700945550458   1.0000000
N2   N   0.778117625183743   0.556826803195741   0.124688455623817   1.0000000
N2   N   0.611432342455069   0.056820821957020   0.124820900263585   1.0000000
N2   N   0.444763546703656   0.556756905767218   0.625299054449555   1.0000000
N2   N   0.944726674080652   0.056812681180101   0.124954896388248   1.0000000
N2   N   0.278112930116458   0.723491011462248   0.625069458068901   1.0000000
N2   N   0.111347959140202   0.223442682662602   0.625283950412672   1.0000000
N2   N   0.444782541179125   0.223543332933812   0.625371838583324   1.0000000
N2   N   0.611455913484845   0.723502876151265   0.625496383511573   1.0000000
N2   N   0.944776869598030   0.723492352468641   0.625198809376134   1.0000000
N2   N   0.778111312558364   0.223458979412455   0.625307766914210   1.0000000
N2   N   0.111449496403451   0.723497687544075   0.125002549939851   1.0000000
N2   N   0.444759487312770   0.723446336486075   0.124743036547337   1.0000000
N2   N   0.278017437505117   0.223458129289170   0.124578814412008   1.0000000
N2   N   0.778140764523018   0.723555378018563   0.124366533901445   1.0000000
N2   N   0.611472150020924   0.223513037158992   0.124632076351147   1.0000000
N2   N   0.944734624773070   0.223464522370898   0.124900745761962   1.0000000
N2   N   0.111404068665859   0.390128506292014   0.625198917110575   1.0000000
N2   N   0.278129014760616   0.890190791231814   0.625091475363946   1.0000000
N2   N   0.611415774151980   0.890138437390912   0.625144355719668   1.0000000
N2   N   0.444715555688752   0.390102341290679   0.625042647204068   1.0000000
N2   N   0.944763608733590   0.890171844071657   0.625125688984884   1.0000000
N2   N   0.111444069776368   0.890170618820134   0.124947482432539   1.0000000
N2   N   0.778117404606465   0.390128509004003   0.625380504070257   1.0000000
N2   N   0.444774305789224   0.890160310664449   0.124892350061930   1.0000000
N2   N   0.278035277573546   0.390083968752105   0.124644445700363   1.0000000
N2   N   0.278093550174015   0.556789379495301   0.124767185019036   1.0000000
N2   N   0.611474482639920   0.390150429328087   0.124980482886427   1.0000000
N2   N   0.778104787825388   0.890187489337914   0.124757162882245   1.0000000
N2   N   0.944766041008313   0.390135592714670   0.124842556156308   1.0000000
N2   N   0.111438938907271   0.556813373361191   0.625064218083987   1.0000000
N2   N   0.278109555422220   0.056858356453131   0.625282816115049   1.0000000
N2   N   0.778117625183743   0.556826803195741   0.625311544376294   1.0000000
N2   N   0.611432342455069   0.056820821957021   0.625179099736469   1.0000000
N2   N   0.944726674080653   0.056812681180101   0.625045103611786   1.0000000
N2   N   0.051656749193890   0.107676003540406   0.375000000000000   1.0000000
N2   N   0.554371731930037   0.604331218370303   0.375000000000000   1.0000000
N2   N   0.390352424852317   0.115665747551319   0.375000000000000   1.0000000
N2   N   0.893008552973292   0.611614999459415   0.375000000000000   1.0000000
N2   N   0.720556347736613   0.108983151530187   0.375000000000000   1.0000000
N2   N   0.055292007651346   0.776445075057510   0.875000000000000   1.0000000
N2   N   0.388603618630639   0.776447439312115   0.875000000000000   1.0000000
N2   N   0.221950989818117   0.276451185177128   0.875000000000000   1.0000000
N2   N   0.721932981892088   0.776422002825576   0.875000000000000   1.0000000
N2   N   0.555306471715839   0.276471679183627   0.875000000000000   1.0000000
N2   N   0.888610250641724   0.276424944203616   0.875000000000000   1.0000000
N2   N   0.223776226166784   0.778315237101733   0.375000000000000   1.0000000
N2   N   0.051419641748001   0.275118373939000   0.375000000000000   1.0000000
N2   N   0.378194117712102   0.273735823616353   0.375000000000000   1.0000000
N2   N   0.554308969166809   0.773848169509469   0.375000000000000   1.0000000
N2   N   0.891838830031795   0.778491726915844   0.375000000000000   1.0000000
N2   N   0.722907222950371   0.276717191913639   0.375000000000000   1.0000000
N2   N   0.055283034552723   0.943106304630826   0.875000000000000   1.0000000
N2   N   0.388620718109324   0.943131342599305   0.875000000000000   1.0000000
N2   N   0.221934254618190   0.443105181032931   0.875000000000000   1.0000000
N2   N   0.555294989624033   0.443138678063744   0.875000000000000   1.0000000
N2   N   0.721922368604406   0.943077930825185   0.875000000000000   1.0000000
N2   N   0.888619313842091   0.443105195999302   0.875000000000000   1.0000000
N2   N   0.054554648117617   0.443608708989723   0.375000000000000   1.0000000
N2   N   0.223740857205774   0.945613606707442   0.375000000000000   1.0000000
N2   N   0.554693517716346   0.942901086930014   0.375000000000000   1.0000000
N2   N   0.374216344243217   0.438169558676068   0.375000000000000   1.0000000
N2   N   0.886884890027297   0.941643211304536   0.375000000000000   1.0000000
N2   N   0.729746283118711   0.443756715230473   0.375000000000000   1.0000000
N2   N   0.221935378609992   0.609774196641783   0.875000000000000   1.0000000
N2   N   0.055278584378830   0.109765280755762   0.875000000000000   1.0000000
N2   N   0.555265939161297   0.609769983650322   0.875000000000000   1.0000000
N2   N   0.388638462647376   0.109806556140196   0.875000000000000   1.0000000
N2   N   0.888629222009514   0.609775958308464   0.875000000000000   1.0000000
N2   N   0.057851802676615   0.611553072083082   0.375000000000000   1.0000000
N2   N   0.721932330017044   0.109748855506461   0.875000000000000   1.0000000
N2   N   0.219073768684582   0.108614129278841   0.375000000000000   1.0000000
N2   N   0.387455925924971   0.607182321123526   0.375000000000000   1.0000000
N2   N   0.730320820138390   0.614827667735401   0.375000000000000   1.0000000
N2   N   0.555283646158829   0.111917945258481   0.375000000000000   1.0000000
N2   N   0.388595335550970   0.609771558195740   0.875000000000000   1.0000000
N2   N   0.885932891869195   0.108129423305438   0.375000000000000   1.0000000
N2   N   0.221945035804532   0.776455175177419   0.875000000000000   1.0000000
N2   N   0.055269215917344   0.276423454189623   0.875000000000000   1.0000000
N2   N   0.388624243233165   0.276460369796911   0.875000000000000   1.0000000
N2   N   0.555252877750265   0.776424853736774   0.875000000000000   1.0000000
N2   N   0.888618430613393   0.776437538757101   0.875000000000000   1.0000000
N2   N   0.721955052625441   0.276434511047402   0.875000000000000   1.0000000
N2   N   0.057955903677528   0.778452262405415   0.375000000000000   1.0000000
N2   N   0.389009332921532   0.776496193661773   0.375000000000000   1.0000000
N2   N   0.214501832607942   0.273396988802188   0.375000000000000   1.0000000
N2   N   0.721239950981452   0.774799856071227   0.375000000000000   1.0000000
N2   N   0.560091753762032   0.283507625260615   0.375000000000000   1.0000000
N2   N   0.887354455615032   0.275877418584614   0.375000000000000   1.0000000
N2   N   0.055274392697960   0.443096456142960   0.875000000000000   1.0000000
N2   N   0.221960752410023   0.943128446238636   0.875000000000000   1.0000000
N2   N   0.555267078107385   0.943102447524634   0.875000000000000   1.0000000
N2   N   0.388619686405315   0.443122625291010   0.875000000000000   1.0000000
N2   N   0.888607684518814   0.943092648296035   0.875000000000000   1.0000000
N2   N   0.055417174261197   0.943439953932022   0.375000000000000   1.0000000
N2   N   0.721971931884815   0.443123004207757   0.875000000000000   1.0000000
N2   N   0.389534837392311   0.945580010051544   0.375000000000000   1.0000000
N2   N   0.216759663971979   0.442622775617987   0.375000000000000   1.0000000
N2   N   0.222465715240301   0.610620624162185   0.375000000000000   1.0000000
N2   N   0.720139598160101   0.941407107129864   0.375000000000000   1.0000000
N2   N   0.891998831891732   0.444416620460246   0.375000000000000   1.0000000
N2   N   0.055280439174889   0.609771510296409   0.875000000000000   1.0000000
N2   N   0.221949042309398   0.109783770078701   0.875000000000000   1.0000000
N2   N   0.721958100122546   0.609775886904015   0.875000000000000   1.0000000
N2   N   0.555285851254707   0.109789319885777   0.875000000000000   1.0000000
N2   N   0.888595395320983   0.109747924770369   0.875000000000000   1.0000000
B2   B   0.108743177155952   0.053535413982601   0.375000000000000   1.0000000
B2   B   0.618358087781851   0.552746291112699   0.375000000000000   1.0000000
B2   B   0.444313711150813   0.057743959493897   0.375000000000000   1.0000000
B2   B   0.947232146054068   0.555598145911584   0.375000000000000   1.0000000
B2   B   0.775099179747996   0.052409531371046   0.375000000000000   1.0000000
B2   B   0.110766434980777   0.720777184517743   0.875000000000000   1.0000000
B2   B   0.444103450852376   0.720762296102825   0.875000000000000   1.0000000
B2   B   0.277492421308716   0.220830659696156   0.875000000000000   1.0000000
B2   B   0.777420460952361   0.720749986072806   0.875000000000000   1.0000000
B2   B   0.610775370103522   0.220838313120370   0.875000000000000   1.0000000
B2   B   0.944088646171725   0.220755077393881   0.875000000000000   1.0000000
B2   B   0.278268787719236   0.721678404600823   0.375000000000000   1.0000000
B2   B   0.105232853273710   0.218227487074084   0.375000000000000   1.0000000
B2   B   0.446861129987415   0.229814158233726   0.375000000000000   1.0000000
B2   B   0.608976629999481   0.715833324358829   0.375000000000000   1.0000000
B2   B   0.946912212453240   0.722528903335174   0.375000000000000   1.0000000
B2   B   0.776480878838212   0.220118844444626   0.375000000000000   1.0000000
B2   B   0.110799730835182   0.887442948999462   0.875000000000000   1.0000000
B2   B   0.444124099035260   0.887441905732125   0.875000000000000   1.0000000
B2   B   0.277501648220122   0.387458525819400   0.875000000000000   1.0000000
B2   B   0.610790402592662   0.387505249217477   0.875000000000000   1.0000000
B2   B   0.777433608530726   0.887386209430158   0.875000000000000   1.0000000
B2   B   0.944098822306751   0.387417247235293   0.875000000000000   1.0000000
B2   B   0.107096632302905   0.386391823281821   0.375000000000000   1.0000000
B2   B   0.278770525611730   0.889592501972464   0.375000000000000   1.0000000
B2   B   0.609182493374970   0.885414602907312   0.375000000000000   1.0000000
B2   B   0.944622943910561   0.888065192247117   0.375000000000000   1.0000000
B2   B   0.782004950622468   0.387906735445668   0.375000000000000   1.0000000
B2   B   0.277443182300634   0.554107800526042   0.875000000000000   1.0000000
B2   B   0.110800196626141   0.054129989288436   0.875000000000000   1.0000000
B2   B   0.610762649455705   0.554107033942946   0.875000000000000   1.0000000
B2   B   0.444132549659219   0.054174597041079   0.875000000000000   1.0000000
B2   B   0.944079952388542   0.554104469309040   0.875000000000000   1.0000000
B2   B   0.111682069711129   0.554852113832941   0.375000000000000   1.0000000
B2   B   0.777419630808987   0.054080758733952   0.875000000000000   1.0000000
B2   B   0.278792789260845   0.057199380513867   0.375000000000000   1.0000000
B2   B   0.442643165022840   0.549453800402799   0.375000000000000   1.0000000
B2   B   0.782125035668459   0.555884221714693   0.375000000000000   1.0000000
B2   B   0.609617164913567   0.054496802759084   0.375000000000000   1.0000000
B2   B   0.444151494241408   0.554098448935220   0.875000000000000   1.0000000
B2   B   0.941042790705638   0.052107118706053   0.375000000000000   1.0000000
B2   B   0.277441546231561   0.720759817956447   0.875000000000000   1.0000000
B2   B   0.110823003769945   0.220778318954768   0.875000000000000   1.0000000
B2   B   0.444171768323873   0.220856130802759   0.875000000000000   1.0000000
B2   B   0.610760733370983   0.720717839807456   0.875000000000000   1.0000000
B2   B   0.944098635865625   0.720753621533722   0.875000000000000   1.0000000
B2   B   0.777445669720139   0.220764148764305   0.875000000000000   1.0000000
B2   B   0.113009980253515   0.722631320503655   0.375000000000000   1.0000000
B2   B   0.443414387406907   0.718846438677701   0.375000000000000   1.0000000
B2   B   0.270293730428225   0.218494389931480   0.375000000000000   1.0000000
B2   B   0.780939193158172   0.722603343698517   0.375000000000000   1.0000000
B2   B   0.611499733937007   0.223569997199736   0.375000000000000   1.0000000
B2   B   0.941053567395678   0.219177040260125   0.375000000000000   1.0000000
B2   B   0.110786918016545   0.387445087610067   0.875000000000000   1.0000000
B2   B   0.277442111558110   0.887467257065637   0.875000000000000   1.0000000
B2   B   0.610742740433999   0.887407121860020   0.875000000000000   1.0000000
B2   B   0.444173634844206   0.387511000840092   0.875000000000000   1.0000000
B2   B   0.944090621105425   0.887422766617965   0.875000000000000   1.0000000
B2   B   0.112530244554025   0.889413604367195   0.375000000000000   1.0000000
B2   B   0.777433641353553   0.387477961982156   0.875000000000000   1.0000000
B2   B   0.443959402859746   0.888157973023910   0.375000000000000   1.0000000
B2   B   0.267281263841202   0.383802583170347   0.375000000000000   1.0000000
B2   B   0.276351299968342   0.553578985687137   0.375000000000000   1.0000000
B2   B   0.775440634270726   0.885141881905742   0.375000000000000   1.0000000
B2   B   0.944380522436863   0.387288039942752   0.375000000000000   1.0000000
B2   B   0.110782905267122   0.554087371236781   0.875000000000000   1.0000000
B2   B   0.277481567488420   0.054147904867227   0.875000000000000   1.0000000
B2   B   0.777441982542315   0.554114640488114   0.875000000000000   1.0000000
B2   B   0.610771953268933   0.054103547643917   0.875000000000000   1.0000000
B2   B   0.944107408048260   0.054073663871869   0.875000000000000   1.0000000
B2   B   0.055882840344126   0.112431864557759   0.124934685764228   1.0000000
B2   B   0.555997295287848   0.612300203974430   0.125053504853739   1.0000000
B2   B   0.389356751027216   0.112644614881260   0.124854980203757   1.0000000
B2   B   0.889084592724025   0.612356145664307   0.124936827039145   1.0000000
B2   B   0.722598275165075   0.112461434606649   0.124906314826004   1.0000000
B2   B   0.055866177760645   0.779092496735120   0.624986206187469   1.0000000
B2   B   0.389306660269648   0.779078775206404   0.625045950714079   1.0000000
B2   B   0.222595664044215   0.279094027792224   0.625252755628536   1.0000000
B2   B   0.722569119565572   0.779041136313198   0.625220608556336   1.0000000
B2   B   0.555969739774361   0.279321353854755   0.624792357038891   1.0000000
B2   B   0.889211288002402   0.279089670221380   0.625101853991287   1.0000000
B2   B   0.222585915485400   0.779132308380489   0.125042426786838   1.0000000
B2   B   0.055884685683384   0.279094320900061   0.124891148655166   1.0000000
B2   B   0.389373541544137   0.279335830731113   0.125197531533855   1.0000000
B2   B   0.555946104453107   0.779029580355689   0.124856847892618   1.0000000
B2   B   0.889124698040375   0.779058625842200   0.124857965025901   1.0000000
B2   B   0.722551655950084   0.279166694082475   0.124764318461549   1.0000000
B2   B   0.055867239921888   0.945793329104096   0.625014074414515   1.0000000
B2   B   0.389301129850812   0.945867829042761   0.625075601330456   1.0000000
B2   B   0.222612017094462   0.445724744278267   0.625180042133591   1.0000000
B2   B   0.555896657790042   0.445804063291284   0.623207065073116   1.0000000
B2   B   0.722573609017787   0.945755048880998   0.625013482139003   1.0000000
B2   B   0.889137135431206   0.445750856821443   0.625112297174279   1.0000000
B2   B   0.055911601128675   0.445756961512445   0.124938195528297   1.0000000
B2   B   0.222610626113242   0.945846267955088   0.124944919574314   1.0000000
B2   B   0.555940892415956   0.945777053691510   0.124952023661205   1.0000000
B2   B   0.389390076740758   0.445663993073766   0.125296432761260   1.0000000
B2   B   0.889188920454285   0.945736683460530   0.125008964991791   1.0000000
B2   B   0.722422064829631   0.445737081711863   0.125258823060811   1.0000000
B2   B   0.222611981414731   0.612405259166552   0.625036867948487   1.0000000
B2   B   0.055882840344125   0.112431864557759   0.625065314235762   1.0000000
B2   B   0.555997295287848   0.612300203974427   0.624946495146223   1.0000000
B2   B   0.389356751027215   0.112644614881261   0.625145019796145   1.0000000
B2   B   0.889084592724025   0.612356145664307   0.625063172960902   1.0000000
B2   B   0.055859934728026   0.612423466691744   0.125008289901851   1.0000000
B2   B   0.722598275165075   0.112461434606649   0.625093685173988   1.0000000
B2   B   0.222595363643076   0.112543553812103   0.124795317020635   1.0000000
B2   B   0.389332259045131   0.612330322138318   0.124875165722721   1.0000000
B2   B   0.722427542233627   0.612366281587045   0.124995568781910   1.0000000
B2   B   0.555943315829390   0.112569344156663   0.124824580668505   1.0000000
B2   B   0.389332259045129   0.612330322138318   0.625124834277225   1.0000000
B2   B   0.889197614136356   0.112429298191284   0.125051410192865   1.0000000
B2   B   0.222585915485400   0.779132308380489   0.624957573213134   1.0000000
B2   B   0.055884685683385   0.279094320900061   0.625108851344847   1.0000000
B2   B   0.389373541544137   0.279335830731112   0.624802468466169   1.0000000
B2   B   0.555946104453107   0.779029580355689   0.625143152107425   1.0000000
B2   B   0.889124698040375   0.779058625842187   0.625142034974069   1.0000000
B2   B   0.722551655950084   0.279166694082475   0.625235681538498   1.0000000
B2   B   0.055866177760646   0.779092496735120   0.125013793812561   1.0000000
B2   B   0.389306660269648   0.779078775206404   0.124954049285986   1.0000000
B2   B   0.222595664044215   0.279094027792224   0.124747244371483   1.0000000
B2   B   0.722569119565572   0.779041136313198   0.124779391443650   1.0000000
B2   B   0.555969739774361   0.279321353854755   0.125207642961121   1.0000000
B2   B   0.889211288002402   0.279089670221380   0.124898146008768   1.0000000
B2   B   0.055911601128673   0.445756961512445   0.625061804471832   1.0000000
B2   B   0.222610626113242   0.945846267955088   0.625055080425627   1.0000000
B2   B   0.555940892415955   0.945777053691510   0.625047976338810   1.0000000
B2   B   0.389390076740758   0.445663993073766   0.624703567238689   1.0000000
B2   B   0.889188920454285   0.945736683460530   0.624991035008154   1.0000000
B2   B   0.055867239921888   0.945793329104096   0.124985925585490   1.0000000
B2   B   0.722422064829631   0.445737081711863   0.624741176939220   1.0000000
B2   B   0.389301129850812   0.945867829042761   0.124924398669547   1.0000000
B2   B   0.222612017094462   0.445724744278267   0.124819957866449   1.0000000
B2   B   0.222611981414729   0.612405259166551   0.124963132051549   1.0000000
B2   B   0.555896657790029   0.445804063291284   0.126792934926888   1.0000000
B2   B   0.722573609017786   0.945755048880998   0.124986517860960   1.0000000
B2   B   0.889137135431206   0.445750856821443   0.124887702825770   1.0000000
B2   B   0.055859934728025   0.612423466691744   0.624991710098088   1.0000000
B2   B   0.222595363643076   0.112543553812103   0.625204682979362   1.0000000
B2   B   0.722427542233627   0.612366281587045   0.625004431218162   1.0000000
B2   B   0.555943315829393   0.112569344156664   0.625175419331520   1.0000000
B2   B   0.889197614136356   0.112429298191283   0.624948589807151   1.0000000


