data_1
_audit_creation_method   'vasp2cif'
_cell_length_a    17.52789999999977
_cell_length_b    17.52789999999977
_cell_length_c    15.0
_cell_angle_alpha    90.0
_cell_angle_beta    90.0
_cell_angle_gamma    119.99999999999916

_symmetry_space_group_name_H-M    'P 1'
loop_
_atom_site_label
_atom_site_type_symbol
_atom_site_fract_x
_atom_site_fract_y
_atom_site_fract_z
_atom_site_occupancy
B2   B   0.905484145440215   0.953566385198817   0.111016631758418   1.0000000
B2   B   0.904273182405720   0.095728838790275   0.111030606505347   1.0000000
B2   B   0.903871994966682   0.238427458732234   0.111039310236776   1.0000000
B2   B   0.903954511340485   0.381243659327604   0.110987279980259   1.0000000
B2   B   0.904734179228269   0.524141763039720   0.110997819174719   1.0000000
B2   B   0.905588905935905   0.667268773465664   0.111052014450971   1.0000000
B2   B   0.906228870066757   0.810938496276315   0.111030476958819   1.0000000
B2   B   0.047685215795291   0.952316805400712   0.110988789307495   1.0000000
B2   B   0.046435635997186   0.094517875755781   0.111016631758418   1.0000000
B2   B   0.046051377246893   0.237642722445135   0.111009407604957   1.0000000
B2   B   0.046359692165149   0.380809411434029   0.110997837417663   1.0000000
B2   B   0.047254314224708   0.523772977638579   0.111004017215856   1.0000000
B2   B   0.048034135537642   0.666655271781688   0.111024080451704   1.0000000
B2   B   0.048102154599173   0.809590354571457   0.110989090911570   1.0000000
B2   B   0.190411666624546   0.951899866596828   0.110989090911570   1.0000000
B2   B   0.189063524919689   0.093773151129240   0.111030476958819   1.0000000
B2   B   0.186987009400289   0.235341703880077   0.111030969443059   1.0000000
B2   B   0.188070524519637   0.379759734574165   0.111023993644074   1.0000000
B2   B   0.189722258555544   0.523230392473508   0.111071967975569   1.0000000
B2   B   0.190972696536402   0.666279950319883   0.111064434951188   1.0000000
B2   B   0.190799198137802   0.809202823058202   0.110986026343681   1.0000000
B2   B   0.333346749415309   0.951967885658360   0.111024080451704   1.0000000
B2   B   0.332733247731336   0.094413115260093   0.111052014450971   1.0000000
B2   B   0.330024510716026   0.234913766479940   0.111021119080340   1.0000000
B2   B   0.326561110669252   0.375912572077294   0.111021827876552   1.0000000
B2   B   0.332347150375043   0.521475674203273   0.111064890988369   1.0000000
B2   B   0.334371814609948   0.665630206587052   0.111103366853746   1.0000000
B2   B   0.333722070877115   0.809029324659603   0.111064434951188   1.0000000
B2   B   0.476229043558420   0.952747706971298   0.111004017215856   1.0000000
B2   B   0.475860258157280   0.095267841967726   0.110997819174719   1.0000000
B2   B   0.475197112819872   0.237506434552616   0.111038756542022   1.0000000
B2   B   0.470335349216012   0.374965488697487   0.111064395154498   1.0000000
B2   B   0.478526346993725   0.667654870821956   0.111064890988369   1.0000000
B2   B   0.476771628723489   0.810279762640457   0.111071967975569   1.0000000
B2   B   0.619192609761978   0.953642329030852   0.110997837417663   1.0000000
B2   B   0.618758361868398   0.096047509855513   0.110987279980259   1.0000000
B2   B   0.618464475390520   0.238841624072727   0.111017676143968   1.0000000
B2   B   0.618041563512459   0.381960457683544   0.111038297680513   1.0000000
B2   B   0.625036532498517   0.529666671980987   0.111064395154498   1.0000000
B2   B   0.624089449118707   0.673440910527747   0.111021827876552   1.0000000
B2   B   0.620242286621837   0.811931496676364   0.111023993644074   1.0000000
B2   B   0.762359298750872   0.953950643949111   0.111009407604957   1.0000000
B2   B   0.761574562463770   0.096130026229316   0.111039310236776   1.0000000
B2   B   0.761256696445089   0.238745324750914   0.111044501613645   1.0000000
B2   B   0.761160397123279   0.381537545805484   0.111017676143968   1.0000000
B2   B   0.762495586643387   0.524804908377126   0.111038756542022   1.0000000
B2   B   0.765088254716064   0.669977510480973   0.111021119080340   1.0000000
B2   B   0.764660317315928   0.813015011795713   0.111030969443059   1.0000000
N2   N   0.953144346192294   0.905798841245746   0.110994305576031   1.0000000
N2   N   0.951899751563596   0.048101650354411   0.111005769306363   1.0000000
N2   N   0.951100681346139   0.190580046103097   0.111017986191018   1.0000000
N2   N   0.951163420203133   0.333433297404819   0.110992421333954   1.0000000
N2   N   0.951999573521337   0.476368574925614   0.110959398213117   1.0000000
N2   N   0.952939897755316   0.619358746040637   0.111014664534886   1.0000000
N2   N   0.953328520529463   0.762582061644142   0.111023002175511   1.0000000
N2   N   0.095377667979274   0.904623733938727   0.110950522177065   1.0000000
N2   N   0.094202560672254   0.046857055725709   0.110994305576031   1.0000000
N2   N   0.092386467316268   0.188775634113129   0.111006374359357   1.0000000
N2   N   0.092800712567743   0.332499516408882   0.110981356811670   1.0000000
N2   N   0.094146440685584   0.475940665953988   0.111007424536437   1.0000000
N2   N   0.095428801621246   0.619002721675030   0.111012540485642   1.0000000
N2   N   0.095631856396453   0.761871638635400   0.110969732052308   1.0000000
N2   N   0.238129763282606   0.904369545521547   0.110969732052308   1.0000000
N2   N   0.237419340273865   0.046672881388543   0.111023002175511   1.0000000
N2   N   0.234973041488318   0.187768021842862   0.111012661719264   1.0000000
N2   N   0.231929118856137   0.328846180789875   0.111009933598561   1.0000000
N2   N   0.235656960240418   0.475004770847333   0.111035115636493   1.0000000
N2   N   0.238264370627936   0.618724913396587   0.111081815060740   1.0000000
N2   N   0.238332815036916   0.761668586881091   0.111026027001131   1.0000000
N2   N   0.380998680242971   0.904572600296755   0.111012540485642   1.0000000
N2   N   0.380642655877363   0.047061504162690   0.111014664534886   1.0000000
N2   N   0.379659521560755   0.188915742706887   0.111030900349004   1.0000000
N2   N   0.375010415687433   0.328030398068322   0.110997359879057   1.0000000
N2   N   0.370050544804280   0.467463568199801   0.111011050885927   1.0000000
N2   N   0.381718281082668   0.618283120835329   0.111069669741952   1.0000000
N2   N   0.381276488521411   0.761737031290071   0.111081815060740   1.0000000
N2   N   0.524060735963009   0.905854961232415   0.111007424536437   1.0000000
N2   N   0.523632826991384   0.048001828396670   0.110959398213117   1.0000000
N2   N   0.523265938964487   0.190279456457170   0.111004565418567   1.0000000
N2   N   0.522650342846342   0.332416887425536   0.111034002768392   1.0000000
N2   N   0.532537833717196   0.629950857113717   0.111011050885927   1.0000000
N2   N   0.524996631069663   0.764344441677586   0.111035115636493   1.0000000
N2   N   0.667501885508114   0.907200689350256   0.110981356811670   1.0000000
N2   N   0.666568104512177   0.048837981714875   0.110992421333954   1.0000000
N2   N   0.666186721776235   0.191213111034952   0.110999061857212   1.0000000
N2   N   0.665997413958228   0.334003987958768   0.111003975810510   1.0000000
N2   N   0.667584514491461   0.477351059070657   0.111034002768392   1.0000000
N2   N   0.671971003848675   0.624990986230569   0.110997359879057   1.0000000
N2   N   0.671155221127120   0.768072283061868   0.111009933598561   1.0000000
N2   N   0.811225767804872   0.907614934601731   0.111006374359357   1.0000000
N2   N   0.809421355814902   0.048900720571867   0.111017986191018   1.0000000
N2   N   0.808835765445575   0.191165636472424   0.111042446635375   1.0000000
N2   N   0.808788290883045   0.333814680140763   0.110999061857212   1.0000000
N2   N   0.809721945460830   0.476735462952511   0.111004565418567   1.0000000
N2   N   0.811085659211112   0.620341880357243   0.111030900349004   1.0000000
N2   N   0.812233380075138   0.765028360429688   0.111012661719264   1.0000000
As2   As   0.498707351977690   0.501294669219305   0.111126811892166   1.0000000


