data_1
_audit_creation_method   'vasp2cif'
_cell_length_a    17.52789999999977
_cell_length_b    17.52789999999977
_cell_length_c    15.0
_cell_angle_alpha    90.0
_cell_angle_beta    90.0
_cell_angle_gamma    119.99999999999916

_symmetry_space_group_name_H-M    'P 1'
loop_
_atom_site_label
_atom_site_type_symbol
_atom_site_fract_x
_atom_site_fract_y
_atom_site_fract_z
_atom_site_occupancy
B2   B   0.905670747805918   0.953203673710846   0.111000784493933   1.0000000
B2   B   0.904390162153225   0.095611784516936   0.111034388979412   1.0000000
B2   B   0.903909864178632   0.238432335056870   0.111044461184123   1.0000000
B2   B   0.903802969870620   0.381191786764351   0.110978916490144   1.0000000
B2   B   0.904359030677137   0.523862916940881   0.110991355663937   1.0000000
B2   B   0.906322238899663   0.667065134363562   0.111059258045720   1.0000000
B2   B   0.907419753978995   0.811193456754206   0.111035669165732   1.0000000
B2   B   0.048191188656207   0.951810394847913   0.111015939731047   1.0000000
B2   B   0.046797737746598   0.094330712171668   0.111010406851267   1.0000000
B2   B   0.046511601420192   0.237490925988271   0.110997962699041   1.0000000
B2   B   0.047064335692172   0.380450550475020   0.110996443667473   1.0000000
B2   B   0.048244495332291   0.523072651881138   0.110973276243276   1.0000000
B2   B   0.048920797910037   0.665899816671619   0.111025638851965   1.0000000
B2   B   0.048993791969747   0.809002935485358   0.111061241428992   1.0000000
B2   B   0.190999026241429   0.951007788989384   0.111055666668649   1.0000000
B2   B   0.188807701861514   0.092581924497214   0.111042658588483   1.0000000
B2   B   0.187998757299215   0.235490822740489   0.111003944049952   1.0000000
B2   B   0.189499444324109   0.379292397828211   0.110988690433410   1.0000000
B2   B   0.192356158083431   0.522075750681938   0.110991288102668   1.0000000
B2   B   0.192342966415329   0.665036196614358   0.110984023809217   1.0000000
B2   B   0.191842470799532   0.808159618713741   0.111005810401769   1.0000000
B2   B   0.334102526874141   0.951081493614565   0.111018811283550   1.0000000
B2   B   0.332935789693311   0.093679802377674   0.111065955881755   1.0000000
B2   B   0.328795601775107   0.232948857417435   0.110985834275826   1.0000000
B2   B   0.329313708486323   0.376442146399754   0.111001954955540   1.0000000
B2   B   0.337535579555239   0.519968932326618   0.111070989259743   1.0000000
B2   B   0.336169195797930   0.663832997929506   0.111004006850651   1.0000000
B2   B   0.334965904208812   0.807659198200695   0.110979199263314   1.0000000
B2   B   0.476929623848890   0.951757705113106   0.110967671622276   1.0000000
B2   B   0.476138841922867   0.095642727284803   0.110997600202147   1.0000000
B2   B   0.474784798031467   0.239521822097112   0.111073137071820   1.0000000
B2   B   0.466053085747244   0.378406134149090   0.111149230921255   1.0000000
B2   B   0.480032041362523   0.662465851169878   0.111068998202524   1.0000000
B2   B   0.477926330997683   0.807646197702270   0.110986993688202   1.0000000
B2   B   0.619551356918279   0.952937734665288   0.110989643346689   1.0000000
B2   B   0.618810276704664   0.096198901494052   0.110979412377182   1.0000000
B2   B   0.617924333587070   0.239922735507407   0.111077797362825   1.0000000
B2   B   0.615965039765837   0.384038982419276   0.111139529675880   1.0000000
B2   B   0.621595426942970   0.533948407993578   0.111128787679371   1.0000000
B2   B   0.623558421658926   0.670687094988868   0.110982764418022   1.0000000
B2   B   0.620709798943106   0.810503427570095   0.110981754543424   1.0000000
B2   B   0.762510909620799   0.953490198415842   0.110983257031859   1.0000000
B2   B   0.761569540718435   0.096091370250255   0.111043079859195   1.0000000
B2   B   0.760911480909924   0.239090046700297   0.111088139087831   1.0000000
B2   B   0.760079366754342   0.382077697139770   0.111070087394527   1.0000000
B2   B   0.760479882504027   0.525217432176226   0.111047572634638   1.0000000
B2   B   0.767050587579262   0.671208211052323   0.110957286833527   1.0000000
B2   B   0.764509412597872   0.812002226092628   0.110984837683586   1.0000000
N2   N   0.953817136503451   0.905809949480858   0.110994169440333   1.0000000
N2   N   0.952082130870997   0.047919367928768   0.111002321799267   1.0000000
N2   N   0.951353888803917   0.190569962954473   0.111018600746076   1.0000000
N2   N   0.951516766085469   0.333497542764545   0.110982909019685   1.0000000
N2   N   0.952417848986266   0.476274412986381   0.110936612188290   1.0000000
N2   N   0.953684453634060   0.619075680072490   0.111017942232315   1.0000000
N2   N   0.954271564796378   0.762448570746253   0.111052468251180   1.0000000
N2   N   0.095991375147657   0.904010329242416   0.111025708789953   1.0000000
N2   N   0.094191665087743   0.046184326320694   0.110997781626629   1.0000000
N2   N   0.093106993883669   0.188872676015195   0.110984089817831   1.0000000
N2   N   0.093899069459174   0.332403388400357   0.110971853054333   1.0000000
N2   N   0.096030632518409   0.475506612588857   0.110968873409286   1.0000000
N2   N   0.096653721389899   0.618248918625807   0.110973903604922   1.0000000
N2   N   0.096628274501929   0.761128220108260   0.111021037553857   1.0000000
N2   N   0.238873814217801   0.903374010853735   0.111014996724871   1.0000000
N2   N   0.237553523834230   0.045730505612684   0.111049232144160   1.0000000
N2   N   0.234203403669918   0.186330084718556   0.111000084012018   1.0000000
N2   N   0.234206628012730   0.329711682885064   0.110982239372225   1.0000000
N2   N   0.239721710269506   0.474258489478024   0.110985715193838   1.0000000
N2   N   0.240091449336336   0.617430825429055   0.110976049317790   1.0000000
N2   N   0.239559305137214   0.760442945604218   0.110966871088439   1.0000000
N2   N   0.381753272627968   0.903348203497895   0.110966343830111   1.0000000
N2   N   0.380926542924410   0.046316968650927   0.111015328310420   1.0000000
N2   N   0.379204593271094   0.188129142203388   0.111031859371358   1.0000000
N2   N   0.372710877066988   0.325217755111711   0.110904185073472   1.0000000
N2   N   0.381729595935655   0.469626621207585   0.111101193689016   1.0000000
N2   N   0.383812109984163   0.616190965561123   0.111050368080973   1.0000000
N2   N   0.382570014770605   0.759910523950956   0.110971955145553   1.0000000
N2   N   0.524496155700023   0.903972442183223   0.110962313485111   1.0000000
N2   N   0.523728198940722   0.047584674909518   0.110935853904245   1.0000000
N2   N   0.522768161699280   0.191235876031890   0.111033652442489   1.0000000
N2   N   0.520432735578798   0.335097913902315   0.111113737855509   1.0000000
N2   N   0.530372408445736   0.618267856578515   0.111090482799953   1.0000000
N2   N   0.525742888094793   0.760280735623080   0.110986474017191   1.0000000
N2   N   0.667597667725800   0.906102283497695   0.110961186388210   1.0000000
N2   N   0.666504644963184   0.048484146135853   0.110979914259808   1.0000000
N2   N   0.665749835069539   0.191677856720260   0.111027960025478   1.0000000
N2   N   0.664656715928852   0.335344273326506   0.111100336942103   1.0000000
N2   N   0.664903812521012   0.479568282396146   0.111098568070445   1.0000000
N2   N   0.674783056117938   0.627290638780396   0.110873421865953   1.0000000
N2   N   0.670290164450534   0.765796303815899   0.110966496560626   1.0000000
N2   N   0.811128723062102   0.906894183620799   0.110966592672960   1.0000000
N2   N   0.809431558272379   0.048647638989194   0.111009554159568   1.0000000
N2   N   0.808702331695881   0.191298821269290   0.111069791819109   1.0000000
N2   N   0.808323678829360   0.334252388986728   0.111025455337855   1.0000000
N2   N   0.808766090369746   0.477233965363153   0.111014406038520   1.0000000
N2   N   0.811871312646892   0.620797681962879   0.111001445646544   1.0000000
N2   N   0.813670934014338   0.765797593848882   0.110977887531447   1.0000000
P2   P   0.502055112238397   0.497946908593124   0.111653462651261   1.0000000


