data_1
_audit_creation_method   'vasp2cif'
_cell_length_a    17.52789999999977
_cell_length_b    17.52789999999977
_cell_length_c    15.0
_cell_angle_alpha    90.0
_cell_angle_beta    90.0
_cell_angle_gamma    119.99999999999916

_symmetry_space_group_name_H-M    'P 1'
loop_
_atom_site_label
_atom_site_type_symbol
_atom_site_fract_x
_atom_site_fract_y
_atom_site_fract_z
_atom_site_occupancy
B2   B   0.904769002403850   0.952364582889622   0.116697699816495   1.0000000
B2   B   0.904773992776133   0.095223576409789   0.116873769678035   1.0000000
B2   B   0.904762140272421   0.238097605418456   0.116760227392502   1.0000000
B2   B   0.904737144685336   0.380963548364601   0.116451092870732   1.0000000
B2   B   0.904775873919181   0.523815224356322   0.115491551658439   1.0000000
B2   B   0.904816391238703   0.666681187943538   0.114309796845327   1.0000000
B2   B   0.904797529853798   0.809538818228741   0.115681177547617   1.0000000
B2   B   0.047624198614042   0.952381836221294   0.117050980659982   1.0000000
B2   B   0.047640701597603   0.095235163915960   0.116674269727754   1.0000000
B2   B   0.047652738406546   0.238093001999861   0.115943404996916   1.0000000
B2   B   0.047622414111824   0.380947010664871   0.116303550164818   1.0000000
B2   B   0.047603522207918   0.523799271919006   0.116625639273335   1.0000000
B2   B   0.047627244291060   0.666664098690460   0.116407316252497   1.0000000
B2   B   0.047642628010076   0.809539915850328   0.116584463055484   1.0000000
B2   B   0.190461846564127   0.952360133304493   0.116531063122359   1.0000000
B2   B   0.190465379160475   0.095208349670331   0.115589824682530   1.0000000
B2   B   0.190503185005791   0.238092370467520   0.113430982653332   1.0000000
B2   B   0.190500279642566   0.380963163378259   0.113258384877138   1.0000000
B2   B   0.190446148615521   0.523800712354092   0.115150232225732   1.0000000
B2   B   0.190451567615924   0.666663518849670   0.116155567182793   1.0000000
B2   B   0.190476228775273   0.809525604649342   0.116639262761043   1.0000000
B2   B   0.333336436336615   0.952371468441793   0.116307907825462   1.0000000
B2   B   0.333320662502519   0.095186735334382   0.114192421779422   1.0000000
B2   B   0.333208147716470   0.237902356698418   0.109510685468185   1.0000000
B2   B   0.333118763485196   0.380843147074949   0.103592186048525   1.0000000
B2   B   0.333206335403912   0.523859343872951   0.109273555579795   1.0000000
B2   B   0.333311868420949   0.666689719744381   0.113796415411642   1.0000000
B2   B   0.333339910310870   0.809548412174589   0.116095092633822   1.0000000
B2   B   0.476201509126940   0.952396882090426   0.116509991706023   1.0000000
B2   B   0.476183528357560   0.095221722528118   0.115369277929533   1.0000000
B2   B   0.476121737900998   0.237913425550275   0.109438401192900   1.0000000
B2   B   0.473926300195571   0.376448730367836   0.082633181648275   1.0000000
B2   B   0.473947480966635   0.526062194196316   0.082600871026998   1.0000000
B2   B   0.476146052553185   0.666800735941417   0.109248814255672   1.0000000
B2   B   0.476202083828576   0.809556962469036   0.115071314820922   1.0000000
B2   B   0.619053753703082   0.952378672167053   0.116235173739200   1.0000000
B2   B   0.619037083799425   0.095266023119788   0.116387616634043   1.0000000
B2   B   0.619007045312482   0.238117083477560   0.113425991819156   1.0000000
B2   B   0.619146651302643   0.380853696269889   0.103630202526500   1.0000000
B2   B   0.623548535665534   0.526074095480520   0.082685485641052   1.0000000
B2   B   0.619165088300341   0.666886199857534   0.103616330136968   1.0000000
B2   B   0.619040376800021   0.809502237401562   0.113231553150575   1.0000000
B2   B   0.761907410501019   0.952347215507047   0.115936188559401   1.0000000
B2   B   0.761900865825464   0.095236425447600   0.116744728502004   1.0000000
B2   B   0.761880063156390   0.238121799946982   0.116034989716484   1.0000000
B2   B   0.761883225617161   0.380992669728925   0.113460207291540   1.0000000
B2   B   0.762086239193281   0.523876841080868   0.109507610074832   1.0000000
B2   B   0.762100620101702   0.666787918032138   0.109586955282696   1.0000000
B2   B   0.761912764125108   0.809497983226193   0.113485490941467   1.0000000
In2   In   0.523754709571378   0.476226953014523   0.948119704907888   1.0000000
N2   N   0.952380358344353   0.904756227836530   0.116871738189972   1.0000000
N2   N   0.952394089389212   0.047605497245820   0.117103129429038   1.0000000
N2   N   0.952402628938292   0.190477938290599   0.116729092316753   1.0000000
N2   N   0.952371772381129   0.333339405021663   0.116804632691323   1.0000000
N2   N   0.952359480715818   0.476181002695458   0.116544292606097   1.0000000
N2   N   0.952385934825526   0.619040997116038   0.115622685358904   1.0000000
N2   N   0.952396643585348   0.761908893180750   0.115746050365355   1.0000000
N2   N   0.095237240306829   0.904766334056654   0.116998289956873   1.0000000
N2   N   0.095248557805675   0.047624508107986   0.116829433089292   1.0000000
N2   N   0.095311479186553   0.190513457511731   0.115674113237481   1.0000000
N2   N   0.095301869353880   0.333341370206312   0.115453023294889   1.0000000
N2   N   0.095226731214446   0.476170879713827   0.116346296804330   1.0000000
N2   N   0.095224050453695   0.619027433610806   0.116625807255729   1.0000000
N2   N   0.095241420388221   0.761903813221089   0.116620535255519   1.0000000
N2   N   0.238097132205431   0.904760222562132   0.116573109804697   1.0000000
N2   N   0.238094592946594   0.047607894257087   0.115636411381355   1.0000000
N2   N   0.238104920353665   0.190481579549000   0.113675066736624   1.0000000
N2   N   0.238282189987537   0.333418036886206   0.110860215899252   1.0000000
N2   N   0.238098654808635   0.476175542353329   0.113377169041729   1.0000000
N2   N   0.238079308002857   0.619037712374026   0.115174114940288   1.0000000
N2   N   0.238096117273399   0.761905574722339   0.116366561936870   1.0000000
N2   N   0.380972203474680   0.904775296909556   0.116516811100385   1.0000000
N2   N   0.380960473728823   0.047614219181896   0.115482420341601   1.0000000
N2   N   0.380918076019674   0.190406483267297   0.110821675186855   1.0000000
N2   N   0.380784457389617   0.333150890161281   0.101213884138752   1.0000000
N2   N   0.380794219202458   0.476195285881089   0.101146307962521   1.0000000
N2   N   0.380926249348958   0.619078505406333   0.110504731146194   1.0000000
N2   N   0.380964587587053   0.761921219066770   0.115120684736976   1.0000000
N2   N   0.523830312705209   0.904775937277934   0.116240865003919   1.0000000
N2   N   0.523819206252399   0.047641789178224   0.116423169413010   1.0000000
N2   N   0.523806636548388   0.190495668498659   0.113560410647958   1.0000000
N2   N   0.523792567696114   0.333160454108319   0.101167046045758   1.0000000
N2   N   0.523813799860408   0.619215581536501   0.101136775912469   1.0000000
N2   N   0.523829517868202   0.761908144972679   0.113322697098128   1.0000000
N2   N   0.666660148976046   0.904700692708416   0.115414337169209   1.0000000
N2   N   0.666659283315730   0.047628903401120   0.116759202716237   1.0000000
N2   N   0.666634161664695   0.190542616141602   0.115645697026888   1.0000000
N2   N   0.666558212216472   0.333441418448888   0.110972163637358   1.0000000
N2   N   0.666837782364879   0.476210149956232   0.101216096048911   1.0000000
N2   N   0.666854673179090   0.619215136871687   0.101266827471370   1.0000000
N2   N   0.666587297571321   0.761720754591997   0.110885070746161   1.0000000
N2   N   0.809489589747331   0.904689778931927   0.115696688744707   1.0000000
N2   N   0.809520269829155   0.047596338115430   0.116726314756161   1.0000000
N2   N   0.809507137276570   0.190490768714463   0.116763405989826   1.0000000
N2   N   0.809458760544589   0.333364924624666   0.115664580668093   1.0000000
N2   N   0.809503131902801   0.476193280870873   0.113642170717271   1.0000000
N2   N   0.809597032167052   0.619081992068393   0.110901871983312   1.0000000
N2   N   0.809523497538977   0.761896969093778   0.113777720302771   1.0000000


