data_1
_audit_creation_method   'vasp2cif'
_cell_length_a    14.93631414619966
_cell_length_b    14.936314146199727
_cell_length_c    13.341276283792837
_cell_angle_alpha    90.0
_cell_angle_beta    90.0
_cell_angle_gamma    119.99999999999984

_symmetry_space_group_name_H-M    'P 1'
loop_
_atom_site_label
_atom_site_type_symbol
_atom_site_fract_x
_atom_site_fract_y
_atom_site_fract_z
_atom_site_occupancy
P2   P   0.407375287559461   0.370354310446426   0.375000000000000   1.0000000
P2   P   0.554143367543490   0.443738350438409   0.375000000000000   1.0000000
N2   N   0.113001477553204   0.056548549110304   0.126045631654181   1.0000000
N2   N   0.613147610364255   0.556808751286497   0.120372171257330   1.0000000
N2   N   0.446270877247669   0.056483683677477   0.125186581902737   1.0000000
N2   N   0.946216915394251   0.556427403066292   0.125071347836008   1.0000000
N2   N   0.779629080625679   0.056481206979522   0.124665083527624   1.0000000
N2   N   0.112882567675634   0.723107950504512   0.624492994506731   1.0000000
N2   N   0.446270877247669   0.723120526903571   0.624813418097325   1.0000000
N2   N   0.279742611915004   0.223211437336486   0.625357378144274   1.0000000
N2   N   0.779649612940819   0.723265666237202   0.626006407250461   1.0000000
N2   N   0.612990937901979   0.223038715567147   0.626499108423147   1.0000000
N2   N   0.946306087549093   0.223116783119078   0.624526511683853   1.0000000
N2   N   0.279553802536906   0.723099700999449   0.125755326361883   1.0000000
N2   N   0.113051832117371   0.223192582725324   0.126169568556694   1.0000000
N2   N   0.446378096142586   0.223241948577958   0.123804396121402   1.0000000
N2   N   0.612990937901968   0.723285555667976   0.123500891576730   1.0000000
N2   N   0.946216915394251   0.723122845661657   0.125071347836008   1.0000000
N2   N   0.779642979031375   0.223063835422505   0.124436549782179   1.0000000
N2   N   0.112914117986520   0.889822341236329   0.624266132945737   1.0000000
N2   N   0.446226177510859   0.889779755422089   0.624689027074609   1.0000000
N2   N   0.279742611915006   0.389864507911843   0.625357378144274   1.0000000
N2   N   0.613147610364255   0.389672192411013   0.629627828742513   1.0000000
N2   N   0.779642979031375   0.889912476942605   0.625563450217917   1.0000000
N2   N   0.946282220938062   0.389747965347583   0.624755513270876   1.0000000
N2   N   0.113001477553205   0.389786261776326   0.126045631654181   1.0000000
N2   N   0.279553802536906   0.889787434870627   0.125755326361887   1.0000000
N2   N   0.612916683627289   0.889836772822145   0.124498629295974   1.0000000
N2   N   0.446730095813609   0.390031714573393   0.117745254375842   1.0000000
N2   N   0.946282220938062   0.889867588923747   0.125244486729254   1.0000000
N2   N   0.779649612940819   0.389717280036992   0.123993592749455   1.0000000
N2   N   0.279634686660230   0.556465146957525   0.624204879622163   1.0000000
N2   N   0.113001477553205   0.056548549110304   0.623954368345791   1.0000000
N2   N   0.613147610364255   0.556808751286497   0.629627828742513   1.0000000
N2   N   0.446270877247669   0.056483683677477   0.624813418097325   1.0000000
N2   N   0.946216915394251   0.556427403066292   0.624928652164002   1.0000000
N2   N   0.112914117986521   0.556425110083347   0.125733867054236   1.0000000
N2   N   0.779629080625679   0.056481206979522   0.625334916472266   1.0000000
N2   N   0.279634686660230   0.056502873035992   0.125795120377793   1.0000000
N2   N   0.446378096142586   0.556469480897920   0.123804396121402   1.0000000
N2   N   0.779568156806064   0.556450745069454   0.123641308166732   1.0000000
N2   N   0.612916683627289   0.056413244138456   0.124498629295974   1.0000000
N2   N   0.446378096142586   0.556469480897920   0.626195603878683   1.0000000
N2   N   0.946306087549093   0.056522637763443   0.125473488316006   1.0000000
N2   N   0.279553802536907   0.723099700999449   0.624244673638113   1.0000000
N2   N   0.113051832117372   0.223192582725324   0.623830431443270   1.0000000
N2   N   0.446378096142586   0.223241948577958   0.626195603878683   1.0000000
N2   N   0.612990937901979   0.723285555667975   0.626499108423147   1.0000000
N2   N   0.946216915394251   0.723122845661657   0.624928652164002   1.0000000
N2   N   0.779642979031380   0.223063835422504   0.625563450217898   1.0000000
N2   N   0.112882567675634   0.723107950504512   0.125507005493505   1.0000000
N2   N   0.446270877247669   0.723120526903571   0.125186581902737   1.0000000
N2   N   0.279742611915006   0.223211437336486   0.124642621855952   1.0000000
N2   N   0.779649612940819   0.723265666237202   0.123993592749455   1.0000000
N2   N   0.612990937901968   0.223038715567147   0.123500891576730   1.0000000
N2   N   0.946306087549093   0.223116783119078   0.125473488316006   1.0000000
N2   N   0.113001477553206   0.389786261776326   0.623954368345791   1.0000000
N2   N   0.279553802536906   0.889787434870627   0.624244673638113   1.0000000
N2   N   0.612916683627289   0.889836772822151   0.625501370703781   1.0000000
N2   N   0.446730095813610   0.390031714573393   0.632254745624339   1.0000000
N2   N   0.946282220938062   0.889867588923747   0.624755513270875   1.0000000
N2   N   0.112914117986521   0.889822341236329   0.125733867054236   1.0000000
N2   N   0.779649612940818   0.389717280036992   0.626006407250461   1.0000000
N2   N   0.446226177510859   0.889779755422090   0.125310972925447   1.0000000
N2   N   0.279742611915001   0.389864507911842   0.124642621855952   1.0000000
N2   N   0.279634686660230   0.556465146957525   0.125795120377793   1.0000000
N2   N   0.613147610364255   0.389672192411013   0.120372171257329   1.0000000
N2   N   0.779642979031375   0.889912476942605   0.124436549782179   1.0000000
N2   N   0.946282220938062   0.389747965347583   0.125244486729253   1.0000000
N2   N   0.112914117986520   0.556425110083347   0.624266132945737   1.0000000
N2   N   0.279634686660230   0.056502873035992   0.624204879622163   1.0000000
N2   N   0.779568156806064   0.556450745069454   0.626358691833502   1.0000000
N2   N   0.612916683627289   0.056413244138455   0.625501370703781   1.0000000
N2   N   0.946306087549093   0.056522637763443   0.624526511683853   1.0000000
N2   N   0.054308043084875   0.110147475784123   0.375000000000000   1.0000000
N2   N   0.554749946057323   0.622136591758152   0.375000000000000   1.0000000
N2   N   0.384956876923565   0.099029728149539   0.375000000000000   1.0000000
N2   N   0.887050512849857   0.610191923091451   0.375000000000000   1.0000000
N2   N   0.722215195191916   0.109868303336961   0.375000000000000   1.0000000
N2   N   0.054213045161104   0.777109109608950   0.875000000000000   1.0000000
N2   N   0.387512618965028   0.777088980268496   0.875000000000000   1.0000000
N2   N   0.220827313298602   0.277080323315886   0.875000000000000   1.0000000
N2   N   0.720853358094742   0.777086356350749   0.875000000000000   1.0000000
N2   N   0.554157440070687   0.277081106047857   0.875000000000000   1.0000000
N2   N   0.887495762735130   0.277085279893283   0.875000000000000   1.0000000
N2   N   0.218457383192005   0.775895358262701   0.375000000000000   1.0000000
N2   N   0.054308043084875   0.277493900634079   0.375000000000000   1.0000000
N2   N   0.377207379557594   0.248171792695358   0.375000000000000   1.0000000
N2   N   0.554395495416874   0.782563008259418   0.375000000000000   1.0000000
N2   N   0.889007223443392   0.778881115306962   0.375000000000000   1.0000000
N2   N   0.722750237613946   0.274818423237996   0.375000000000000   1.0000000
N2   N   0.054194339598762   0.943766444070021   0.875000000000000   1.0000000
N2   N   0.387512618965028   0.943756972029782   0.875000000000000   1.0000000
N2   N   0.220831497968260   0.443743988624599   0.875000000000000   1.0000000
N2   N   0.554218206585141   0.443775769959235   0.875000000000000   1.0000000
N2   N   0.720838579192365   0.943750328472690   0.875000000000000   1.0000000
N2   N   0.887523063012046   0.443763037929124   0.875000000000000   1.0000000
N2   N   0.052249837811332   0.444389172196863   0.375000000000000   1.0000000
N2   N   0.218051433547277   0.939201771539054   0.375000000000000   1.0000000
N2   N   0.554335430352359   0.943834381842811   0.375000000000000   1.0000000
N2   N   0.377207379557595   0.462368920195463   0.375000000000000   1.0000000
N2   N   0.888613915078529   0.945128232872097   0.375000000000000   1.0000000
N2   N   0.726456560263972   0.442425049852941   0.375000000000000   1.0000000
N2   N   0.220834473810200   0.610410349331783   0.875000000000000   1.0000000
N2   N   0.054181311944244   0.110422751459358   0.875000000000000   1.0000000
N2   N   0.554157440070687   0.610409667356272   0.875000000000000   1.0000000
N2   N   0.387510083062256   0.110423213923975   0.875000000000000   1.0000000
N2   N   0.887543520056724   0.610438426695254   0.875000000000000   1.0000000
N2   N   0.052462868024023   0.610276231009087   0.375000000000000   1.0000000
N2   N   0.720838579192365   0.110421584052998   0.875000000000000   1.0000000
N2   N   0.214753039140451   0.101272653025561   0.375000000000000   1.0000000
N2   N   0.384956876923565   0.619260482107173   0.375000000000000   1.0000000
N2   N   0.726456560263972   0.617364843744173   0.375000000000000   1.0000000
N2   N   0.554395495416874   0.105165820490639   0.375000000000000   1.0000000
N2   N   0.387510083062258   0.610420202471663   0.875000000000000   1.0000000
N2   N   0.888750864516128   0.111042098924710   0.375000000000000   1.0000000
N2   N   0.220842001370782   0.777087667352168   0.875000000000000   1.0000000
N2   N   0.054181311944244   0.277091893818266   0.875000000000000   1.0000000
N2   N   0.387506325439177   0.277082457625180   0.875000000000000   1.0000000
N2   N   0.554151713967934   0.777072659554915   0.875000000000000   1.0000000
N2   N   0.887523063012046   0.777093358416264   0.875000000000000   1.0000000
N2   N   0.720853358094743   0.277100335077538   0.875000000000000   1.0000000
N2   N   0.052462868024023   0.775519970348096   0.375000000000000   1.0000000
N2   N   0.385739880156033   0.779280571161054   0.375000000000000   1.0000000
N2   N   0.220850056123292   0.277091694728307   0.375000000000000   1.0000000
N2   N   0.722750237613945   0.781265147709392   0.375000000000000   1.0000000
N2   N   0.554749946057323   0.265946687632585   0.375000000000000   1.0000000
N2   N   0.888613915078529   0.276819015539868   0.375000000000000   1.0000000
N2   N   0.054194339598774   0.443761228861928   0.875000000000000   1.0000000
N2   N   0.220834473810199   0.943757457811535   0.875000000000000   1.0000000
N2   N   0.554150000523672   0.943741666928495   0.875000000000000   1.0000000
N2   N   0.387506325439177   0.443757201147181   0.875000000000000   1.0000000
N2   N   0.887495762735130   0.943743816174875   0.875000000000000   1.0000000
N2   N   0.052249837811332   0.941193998947967   0.375000000000000   1.0000000
N2   N   0.720896365142917   0.443787358238385   0.875000000000000   1.0000000
N2   N   0.385739880156033   0.939792642328494   0.375000000000000   1.0000000
N2   N   0.214753039140449   0.446813719448305   0.375000000000000   1.0000000
N2   N   0.218051433547278   0.612182995341355   0.375000000000000   1.0000000
N2   N   0.722215195191916   0.945680225188076   0.375000000000000   1.0000000
N2   N   0.889007223443391   0.443459441469659   0.375000000000000   1.0000000
N2   N   0.054213045161104   0.610437268885564   0.875000000000000   1.0000000
N2   N   0.220831497968260   0.110420842676968   0.875000000000000   1.0000000
N2   N   0.720896365142910   0.610442340237958   0.875000000000000   1.0000000
N2   N   0.554151713967934   0.110412387746217   0.875000000000000   1.0000000
N2   N   0.887487964297666   0.110410648815540   0.875000000000000   1.0000000
B2   B   0.106117936765532   0.050824476896350   0.375000000000000   1.0000000
B2   B   0.617379485215097   0.575160169728399   0.375000000000000   1.0000000
B2   B   0.442836039379680   0.048691376999379   0.375000000000000   1.0000000
B2   B   0.942067151285123   0.554331304605185   0.375000000000000   1.0000000
B2   B   0.778091769705286   0.055712551519381   0.375000000000000   1.0000000
B2   B   0.109748682542078   0.721541007937487   0.875000000000000   1.0000000
B2   B   0.443057913331160   0.721481225570854   0.875000000000000   1.0000000
B2   B   0.276371388268379   0.221545873877474   0.875000000000000   1.0000000
B2   B   0.776388059601855   0.721492857468997   0.875000000000000   1.0000000
B2   B   0.609575635178415   0.221511273558864   0.875000000000000   1.0000000
B2   B   0.942970048415266   0.221489678869473   0.875000000000000   1.0000000
B2   B   0.274713051927445   0.722400147755294   0.375000000000000   1.0000000
B2   B   0.110037623311244   0.221685478322277   0.375000000000000   1.0000000
B2   B   0.442010865085331   0.207965205750673   0.375000000000000   1.0000000
B2   B   0.611304920319292   0.729760367152006   0.375000000000000   1.0000000
B2   B   0.942067151285123   0.721069180013297   0.375000000000000   1.0000000
B2   B   0.778019432300156   0.220469109258003   0.375000000000000   1.0000000
B2   B   0.109756417695460   0.888224338807437   0.875000000000000   1.0000000
B2   B   0.443057107710120   0.888195220521677   0.875000000000000   1.0000000
B2   B   0.276371388268379   0.388158847724308   0.875000000000000   1.0000000
B2   B   0.609597429105447   0.388179149724196   0.875000000000000   1.0000000
B2   B   0.776389913741457   0.888169486407883   0.875000000000000   1.0000000
B2   B   0.942953482305970   0.388153094511764   0.875000000000000   1.0000000
B2   B   0.106117936765533   0.388626793202473   0.375000000000000   1.0000000
B2   B   0.274713051927445   0.885646237505227   0.375000000000000   1.0000000
B2   B   0.611176679825535   0.891267267646301   0.375000000000000   1.0000000
B2   B   0.942819824311878   0.888477980159094   0.375000000000000   1.0000000
B2   B   0.779625813246460   0.386542258972100   0.375000000000000   1.0000000
B2   B   0.276310331063782   0.554781891217315   0.875000000000000   1.0000000
B2   B   0.109785294103627   0.054908725147129   0.875000000000000   1.0000000
B2   B   0.609597429105447   0.554751612714519   0.875000000000000   1.0000000
B2   B   0.443057913331161   0.054910021093559   0.875000000000000   1.0000000
B2   B   0.942945838103353   0.554815270348651   0.875000000000000   1.0000000
B2   B   0.107627431938819   0.555216047929193   0.375000000000000   1.0000000
B2   B   0.776397624878300   0.054865479105768   0.875000000000000   1.0000000
B2   B   0.273904103002936   0.048784233821465   0.375000000000000   1.0000000
B2   B   0.442010865085331   0.567378992667851   0.375000000000000   1.0000000
B2   B   0.776388309954635   0.554860821643908   0.375000000000000   1.0000000
B2   B   0.611176679825539   0.053242745512581   0.375000000000000   1.0000000
B2   B   0.443069663592505   0.554796095568621   0.875000000000000   1.0000000
B2   B   0.943961118863412   0.055646808246576   0.375000000000000   1.0000000
B2   B   0.276288386228375   0.721459670203381   0.875000000000000   1.0000000
B2   B   0.109804907164801   0.221569120249092   0.875000000000000   1.0000000
B2   B   0.443069663592505   0.221606901357027   0.875000000000000   1.0000000
B2   B   0.609575635178415   0.721397694953023   0.875000000000000   1.0000000
B2   B   0.942945838103353   0.721463901087983   0.875000000000000   1.0000000
B2   B   0.776389913741484   0.221553760667087   0.875000000000000   1.0000000
B2   B   0.107904952815138   0.720619143074453   0.375000000000000   1.0000000
B2   B   0.442836039379679   0.727477995713852   0.375000000000000   1.0000000
B2   B   0.269787852667525   0.209970551840773   0.375000000000000   1.0000000
B2   B   0.779625813246461   0.726416887607732   0.375000000000000   1.0000000
B2   B   0.611304920319292   0.214877886500619   0.375000000000000   1.0000000
B2   B   0.943961118863412   0.221647643950016   0.375000000000000   1.0000000
B2   B   0.109785294103627   0.388209902289769   0.875000000000000   1.0000000
B2   B   0.276288386228375   0.888162049358554   0.875000000000000   1.0000000
B2   B   0.609571596047222   0.888099596537059   0.875000000000000   1.0000000
B2   B   0.443121596749677   0.388227465041457   0.875000000000000   1.0000000
B2   B   0.942953482305972   0.888133721127561   0.875000000000000   1.0000000
B2   B   0.107627431938818   0.885744717342804   0.375000000000000   1.0000000
B2   B   0.776388059601855   0.388228535466499   0.875000000000000   1.0000000
B2   B   0.443052204059880   0.888192768696574   0.375000000000000   1.0000000
B2   B   0.269787852667525   0.393150634160004   0.375000000000000   1.0000000
B2   B   0.273904103002935   0.558453202514722   0.375000000000000   1.0000000
B2   B   0.617379485215097   0.375552648819981   0.375000000000000   1.0000000
B2   B   0.778019432300156   0.890883656375375   0.375000000000000   1.0000000
B2   B   0.942819824311878   0.387675177486172   0.375000000000000   1.0000000
B2   B   0.109756417695460   0.554865412221340   0.875000000000000   1.0000000
B2   B   0.276310331063779   0.054861773179711   0.875000000000000   1.0000000
B2   B   0.776398238772545   0.554865786053005   0.875000000000000   1.0000000
B2   B   0.609571596047222   0.054805332843653   0.875000000000000   1.0000000
B2   B   0.942970048415273   0.054813702879187   0.875000000000000   1.0000000
B2   B   0.057590514826269   0.112187823798601   0.126082439999561   1.0000000
B2   B   0.557460491789649   0.611938504707096   0.122716909211196   1.0000000
B2   B   0.390919673656243   0.112381734069829   0.125361663792341   1.0000000
B2   B   0.890509351284822   0.611921342309017   0.124749875978715   1.0000000
B2   B   0.724098998709724   0.112031561587638   0.124576508750592   1.0000000
B2   B   0.057391350102063   0.778733651822339   0.624496656782905   1.0000000
B2   B   0.390795475403516   0.778654880289203   0.624418691806928   1.0000000
B2   B   0.224425896363060   0.278879614848175   0.624250515432507   1.0000000
B2   B   0.724076404499795   0.778753605960765   0.625985047368634   1.0000000
B2   B   0.557460491789649   0.278855320415921   0.627283090788934   1.0000000
B2   B   0.890714085872290   0.278628267203694   0.624872472549749   1.0000000
B2   B   0.224016810910116   0.778675072121708   0.125747687680752   1.0000000
B2   B   0.057590514826269   0.278736024360959   0.126082439999561   1.0000000
B2   B   0.391158152745783   0.279322306983132   0.123521665503611   1.0000000
B2   B   0.557382026194344   0.778637745517551   0.124550122859241   1.0000000
B2   B   0.890627260838886   0.778709618150231   0.124882757808902   1.0000000
B2   B   0.724076404499795   0.278656131872420   0.124014952631207   1.0000000
B2   B   0.057506983184944   0.945524053864664   0.624190093023202   1.0000000
B2   B   0.390795475403516   0.945473928447705   0.624418691806928   1.0000000
B2   B   0.224302759467559   0.445270019633695   0.624213671446618   1.0000000
B2   B   0.557435999926316   0.445384666629822   0.628968292177405   1.0000000
B2   B   0.724098998709724   0.945400770455504   0.625423491249685   1.0000000
B2   B   0.890627260838886   0.445250976022476   0.625117242191246   1.0000000
B2   B   0.057506983184950   0.445316262653576   0.125809906976780   1.0000000
B2   B   0.224094288709889   0.945507437518597   0.125917470927573   1.0000000
B2   B   0.557351988594858   0.945342660964140   0.124872116505667   1.0000000
B2   B   0.391158152745783   0.445169179095955   0.123521665503611   1.0000000
B2   B   0.890714085872290   0.945419152001862   0.125127527450101   1.0000000
B2   B   0.723939755185119   0.445247752444432   0.122888087610698   1.0000000
B2   B   0.224094288709889   0.611920184524537   0.624082529072576   1.0000000
B2   B   0.057590514826269   0.112187823798601   0.623917560000310   1.0000000
B2   B   0.557460491789649   0.611938504707096   0.627283090788934   1.0000000
B2   B   0.390919673656243   0.112381734069829   0.624638336207627   1.0000000
B2   B   0.890509351284822   0.611921342309017   0.625250124021227   1.0000000
B2   B   0.057391350102063   0.611991031613202   0.125503343217011   1.0000000
B2   B   0.724098998709724   0.112031561587637   0.625423491249685   1.0000000
B2   B   0.224302759467562   0.112366073167252   0.125786328553400   1.0000000
B2   B   0.390919673656243   0.611871272919971   0.125361663792341   1.0000000
B2   B   0.723939755185119   0.612025336074144   0.122888087610698   1.0000000
B2   B   0.557382026194345   0.112077614010136   0.124550122859241   1.0000000
B2   B   0.390919673656243   0.611871272919971   0.624638336207627   1.0000000
B2   B   0.890739689061831   0.112036511197583   0.125292255899729   1.0000000
B2   B   0.224016810910117   0.778675072121708   0.624252312319229   1.0000000
B2   B   0.057590514826270   0.278736024360959   0.623917560000310   1.0000000
B2   B   0.391158152745783   0.279322306983132   0.626478334496239   1.0000000
B2   B   0.557382026194344   0.778637745517551   0.625449877140849   1.0000000
B2   B   0.890627260838886   0.778709618150231   0.625117242191246   1.0000000
B2   B   0.724076404499795   0.278656131872420   0.625985047368634   1.0000000
B2   B   0.057391350102064   0.778733651822339   0.125503343217011   1.0000000
B2   B   0.390795475403516   0.778654880289203   0.125581308193194   1.0000000
B2   B   0.224425896363011   0.278879614848175   0.125749484567479   1.0000000
B2   B   0.724076404499795   0.778753605960765   0.124014952631207   1.0000000
B2   B   0.557460491789649   0.278855320415921   0.122716909211196   1.0000000
B2   B   0.890714085872290   0.278628267203694   0.125127527450101   1.0000000
B2   B   0.057506983184950   0.445316262653575   0.624190093023202   1.0000000
B2   B   0.224094288709889   0.945507437518597   0.624082529072576   1.0000000
B2   B   0.557351988594858   0.945342660964140   0.625127883494160   1.0000000
B2   B   0.391158152745783   0.445169179095955   0.626478334496239   1.0000000
B2   B   0.890714085872290   0.945419152001862   0.624872472549749   1.0000000
B2   B   0.057506983184944   0.945524053864664   0.125809906976780   1.0000000
B2   B   0.723939755185119   0.445247752444432   0.627111912389317   1.0000000
B2   B   0.390795475403516   0.945473928447705   0.125581308193194   1.0000000
B2   B   0.224302759467560   0.445270019633695   0.125786328553400   1.0000000
B2   B   0.224094288709890   0.611920184524537   0.125917470927573   1.0000000
B2   B   0.557435999926316   0.445384666629822   0.121031707822496   1.0000000
B2   B   0.724098998709724   0.945400770455406   0.124576508750591   1.0000000
B2   B   0.890627260838886   0.445250976022476   0.124882757808903   1.0000000
B2   B   0.057391350102064   0.611991031613202   0.624496656782905   1.0000000
B2   B   0.224302759467560   0.112366073167252   0.624213671446618   1.0000000
B2   B   0.723939755185119   0.612025336074144   0.627111912389317   1.0000000
B2   B   0.557382026194344   0.112077614010137   0.625449877140849   1.0000000
B2   B   0.890739689061831   0.112036511197583   0.624707744100216   1.0000000


