data_1
_audit_creation_method   'vasp2cif'
_cell_length_a    17.52789999999977
_cell_length_b    17.52789999999977
_cell_length_c    15.0
_cell_angle_alpha    90.0
_cell_angle_beta    90.0
_cell_angle_gamma    119.99999999999916

_symmetry_space_group_name_H-M    'P 1'
loop_
_atom_site_label
_atom_site_type_symbol
_atom_site_fract_x
_atom_site_fract_y
_atom_site_fract_z
_atom_site_occupancy
B2   B   0.904846938382905   0.952365057418051   0.111013010641918   1.0000000
B2   B   0.904795831599872   0.095206189596135   0.111021763811297   1.0000000
B2   B   0.904795961775694   0.238112327733361   0.111056769924498   1.0000000
B2   B   0.904795831599872   0.381018335694745   0.111021763811297   1.0000000
B2   B   0.904846938382905   0.523912286212874   0.111013010641918   1.0000000
B2   B   0.905308357885194   0.666893727248736   0.111058199778535   1.0000000
B2   B   0.905308357885194   0.809845035884465   0.111058199778535   1.0000000
B2   B   0.047677377997872   0.952324643198112   0.111020628178280   1.0000000
B2   B   0.047636963777953   0.095155082813087   0.111013010641918   1.0000000
B2   B   0.047654974229290   0.238077353044636   0.111016949720765   1.0000000
B2   B   0.047654974229290   0.381008026431636   0.111016949720765   1.0000000
B2   B   0.047636963777953   0.523912286212874   0.111013010641918   1.0000000
B2   B   0.047677377997872   0.666784851603747   0.111020628178280   1.0000000
B2   B   0.047800966070369   0.809616541437201   0.110997847077418   1.0000000
B2   B   0.190385479758816   0.952201055125638   0.110997847077418   1.0000000
B2   B   0.190156985311525   0.094693663310807   0.111058199778535   1.0000000
B2   B   0.190491524231881   0.237824153688030   0.111044024936607   1.0000000
B2   B   0.190405979532201   0.380918192389603   0.111009055201216   1.0000000
B2   B   0.190491524231881   0.524097775791864   0.111044024936607   1.0000000
B2   B   0.190156985311525   0.666893727248736   0.111058199778535   1.0000000
B2   B   0.190385479758816   0.809616541437201   0.110997847077418   1.0000000
B2   B   0.333217169593263   0.952324643198108   0.111020628178280   1.0000000
B2   B   0.333108293948281   0.094693663310807   0.111058199778535   1.0000000
B2   B   0.332548348362347   0.236525080774691   0.111072143630370   1.0000000
B2   B   0.333379927987599   0.378960983372680   0.111028648410673   1.0000000
B2   B   0.333379927987599   0.525849349861889   0.111028648410673   1.0000000
B2   B   0.332548348362347   0.667453672834624   0.111072143630370   1.0000000
B2   B   0.333108293948281   0.809845035884465   0.111058199778535   1.0000000
B2   B   0.476089734984132   0.952365057418051   0.111013010641918   1.0000000
B2   B   0.476089734984132   0.095155082813087   0.111013010641918   1.0000000
B2   B   0.475904245405149   0.237824153688030   0.111044024936607   1.0000000
B2   B   0.474152671335111   0.378960983372680   0.111028648410673   1.0000000
B2   B   0.474152671335111   0.666622093209405   0.111028648410673   1.0000000
B2   B   0.475904245405149   0.809510496964140   0.111044024936607   1.0000000
B2   B   0.618993994764317   0.952347046966709   0.111016949720765   1.0000000
B2   B   0.618983685501256   0.095206189596135   0.111021763811297   1.0000000
B2   B   0.618993994764317   0.238077353044636   0.111016949720765   1.0000000
B2   B   0.619083828806364   0.380918192389603   0.111009055201216   1.0000000
B2   B   0.621041037823301   0.525849349861889   0.111028648410673   1.0000000
B2   B   0.621041037823301   0.666622093209405   0.111028648410673   1.0000000
B2   B   0.619083828806364   0.809596041663797   0.111009055201216   1.0000000
B2   B   0.761924668151377   0.952347046966709   0.111016949720765   1.0000000
B2   B   0.761889693462630   0.095206059420283   0.111056769924498   1.0000000
B2   B   0.761889693462630   0.238112327733361   0.111056769924498   1.0000000
B2   B   0.761924668151377   0.381008026431636   0.111016949720765   1.0000000
B2   B   0.762177867507934   0.524097775791864   0.111044024936607   1.0000000
B2   B   0.763476940421307   0.667453672834624   0.111072143630370   1.0000000
B2   B   0.762177867507934   0.809510496964140   0.111044024936607   1.0000000
N2   N   0.952417843849114   0.904787784600905   0.111017701959411   1.0000000
N2   N   0.952419343865995   0.047582058052015   0.110984307624290   1.0000000
N2   N   0.952568507644533   0.190541857027228   0.111020144317457   1.0000000
N2   N   0.952568507644533   0.333453632735341   0.111020144317457   1.0000000
N2   N   0.952419343865995   0.476264267931971   0.110984307624290   1.0000000
N2   N   0.952417843849114   0.619058752923139   0.111017701959411   1.0000000
N2   N   0.952465999854885   0.761947346764950   0.111027915647226   1.0000000
N2   N   0.095242508210990   0.904758893707004   0.110978766538743   1.0000000
N2   N   0.095213617317072   0.047583558068898   0.111017701959411   1.0000000
N2   N   0.095648583297150   0.190771727524783   0.111007302239853   1.0000000
N2   N   0.095720491502794   0.333574592588400   0.110994514716861   1.0000000
N2   N   0.095648583297150   0.476305549446369   0.111007302239853   1.0000000
N2   N   0.095213617317072   0.619058752923139   0.111017701959411   1.0000000
N2   N   0.095242508210990   0.761914019734975   0.110978766538743   1.0000000
N2   N   0.238087382183018   0.904758893707004   0.110978766538743   1.0000000
N2   N   0.238054055153066   0.047535402063124   0.111027915647226   1.0000000
N2   N   0.238002520858767   0.190300223304703   0.111046791515870   1.0000000
N2   N   0.239033973843987   0.334144016445094   0.111012588450308   1.0000000
N2   N   0.239033973843987   0.476318651072901   0.111012588450308   1.0000000
N2   N   0.238002520858767   0.619130991229070   0.111046791515870   1.0000000
N2   N   0.238054055153066   0.761947346764950   0.111027915647226   1.0000000
N2   N   0.380942648994817   0.904787784600905   0.111017701959411   1.0000000
N2   N   0.380942648994817   0.047583558068898   0.111017701959411   1.0000000
N2   N   0.380870410688943   0.190300223304703   0.111046791515870   1.0000000
N2   N   0.380539555137392   0.332506402031771   0.111043065993853   1.0000000
N2   N   0.378836310847030   0.475132502260497   0.110957162980436   1.0000000
N2   N   0.380539555137392   0.619461846780634   0.111043065993853   1.0000000
N2   N   0.380870410688944   0.761998881059248   0.111046791515870   1.0000000
N2   N   0.523695852470633   0.904352818620853   0.111007302239853   1.0000000
N2   N   0.523737133984982   0.047582058052015   0.110984307624290   1.0000000
N2   N   0.523695852470633   0.190771727524783   0.111007302239853   1.0000000
N2   N   0.523682750844068   0.334144016445094   0.111012588450308   1.0000000
N2   N   0.524868899656500   0.475132502260497   0.110957162980436   1.0000000
N2   N   0.524868899656500   0.621165091070999   0.110957162980436   1.0000000
N2   N   0.523682750844068   0.760967428074004   0.111012588450308   1.0000000
N2   N   0.666426809328611   0.904280910415200   0.110994514716861   1.0000000
N2   N   0.666547769181684   0.047432894273455   0.111020144317457   1.0000000
N2   N   0.666547769181684   0.190541857027228   0.111020144317457   1.0000000
N2   N   0.666426809328611   0.333574592588400   0.110994514716861   1.0000000
N2   N   0.665857385471893   0.476318651072901   0.111012588450308   1.0000000
N2   N   0.667494999885215   0.619461846780634   0.111043065993853   1.0000000
N2   N   0.665857385471893   0.760967428074004   0.111012588450308   1.0000000
N2   N   0.809229674393236   0.904352818620853   0.111007302239853   1.0000000
N2   N   0.809459544890778   0.047432894273455   0.111020144317457   1.0000000
N2   N   0.809525273905997   0.190476128012001   0.111049721725253   1.0000000
N2   N   0.809459544890778   0.333453632735341   0.111020144317457   1.0000000
N2   N   0.809229674393236   0.476305549446369   0.111007302239853   1.0000000
N2   N   0.809701178613311   0.619130991229068   0.111046791515870   1.0000000
N2   N   0.809701178613311   0.761998881059248   0.111046791515870   1.0000000
O2   O   0.476191212381998   0.523810808815000   0.110826282472831   1.0000000


