data_1
_audit_creation_method   'vasp2cif'
_cell_length_a    17.52789999999977
_cell_length_b    17.52789999999977
_cell_length_c    15.0
_cell_angle_alpha    90.0
_cell_angle_beta    90.0
_cell_angle_gamma    119.99999999999916

_symmetry_space_group_name_H-M    'P 1'
loop_
_atom_site_label
_atom_site_type_symbol
_atom_site_fract_x
_atom_site_fract_y
_atom_site_fract_z
_atom_site_occupancy
B2   B   0.907865484788143   0.955551986461938   0.110750203688506   1.0000000
B2   B   0.905265646442563   0.096308213452168   0.110913171663200   1.0000000
B2   B   0.904539299842381   0.238405308967518   0.110990785661731   1.0000000
B2   B   0.904410473891630   0.380844265866228   0.110927093930577   1.0000000
B2   B   0.905049638078005   0.523585491888948   0.110888045181607   1.0000000
B2   B   0.908298397347721   0.667174761178227   0.110948064209268   1.0000000
B2   B   0.907032011798874   0.810988407738822   0.110997751344842   1.0000000
B2   B   0.048682788867390   0.952980731775085   0.110910630085872   1.0000000
B2   B   0.048534336548789   0.096014366761018   0.110931867405228   1.0000000
B2   B   0.047221706340141   0.237957593529549   0.110937471314328   1.0000000
B2   B   0.046813756694778   0.380628438856714   0.110955133226026   1.0000000
B2   B   0.047124130823007   0.523601944227964   0.110945673117753   1.0000000
B2   B   0.048545057780000   0.666845033468789   0.110941055658295   1.0000000
B2   B   0.048796242953889   0.810054041889231   0.110912477905231   1.0000000
B2   B   0.190877779857432   0.952414801660907   0.110928111222360   1.0000000
B2   B   0.190554667847128   0.094869256425207   0.110970972286815   1.0000000
B2   B   0.189595231731633   0.236982661762743   0.110919203173286   1.0000000
B2   B   0.188711727517027   0.379657528412848   0.110850488427308   1.0000000
B2   B   0.188845849502063   0.523188127886836   0.110939746135819   1.0000000
B2   B   0.189494516758673   0.666703560302245   0.110975597843757   1.0000000
B2   B   0.190746639256268   0.809717600225278   0.110928417504262   1.0000000
B2   B   0.333375056657594   0.952331407825188   0.110949970477502   1.0000000
B2   B   0.333290090699259   0.094846167290831   0.110998675132509   1.0000000
B2   B   0.332533704114711   0.236701347942906   0.110959732795882   1.0000000
B2   B   0.330112724632926   0.376832633616370   0.110597775960591   1.0000000
B2   B   0.329914497095213   0.522322141487894   0.110612529863530   1.0000000
B2   B   0.329970627019496   0.666454980337456   0.110839623903904   1.0000000
B2   B   0.333072108335260   0.809607789391516   0.110957849219910   1.0000000
B2   B   0.475971783342632   0.952107657534082   0.110911189150384   1.0000000
B2   B   0.476013246785275   0.095288550951752   0.110922580726529   1.0000000
B2   B   0.475730454864745   0.238343529296193   0.110941923377227   1.0000000
B2   B   0.474212670591155   0.381008466658247   0.111039019464547   1.0000000
B2   B   0.469435855884770   0.662134279116952   0.111709401808773   1.0000000
B2   B   0.475758190377637   0.808236992102376   0.110984840358630   1.0000000
B2   B   0.618860978701116   0.954124306886124   0.110770094977003   1.0000000
B2   B   0.618749013172397   0.095885012410942   0.110910725151031   1.0000000
B2   B   0.618635875964967   0.238024184707417   0.110922986627630   1.0000000
B2   B   0.618386061683076   0.379933278874679   0.110928990710347   1.0000000
B2   B   0.617884066556296   0.521246064877294   0.111419314934064   1.0000000
B2   B   0.619420235213521   0.812294272611039   0.111659861818466   1.0000000
B2   B   0.762865678394582   0.954485939307466   0.110744209673223   1.0000000
B2   B   0.761899081648157   0.096213813967645   0.110947155120661   1.0000000
B2   B   0.761618631276920   0.238339333139928   0.110989623508440   1.0000000
B2   B   0.761603170516828   0.380592795695575   0.110919943352221   1.0000000
B2   B   0.762587270915898   0.523336523576405   0.111019240017329   1.0000000
B2   B   0.771427933263241   0.668956378287607   0.111377995798618   1.0000000
B2   B   0.767204442932607   0.815612098016418   0.111598902529420   1.0000000
C2   C   0.467823810440128   0.521243483355800   0.111510429483372   1.0000000
N2   N   0.954229296564750   0.906230153430126   0.110858607380357   1.0000000
N2   N   0.954313640263698   0.050044027469256   0.110865819732570   1.0000000
N2   N   0.952497380415736   0.191253689897962   0.110949322927482   1.0000000
N2   N   0.951991926383572   0.333416677295526   0.110938185413890   1.0000000
N2   N   0.952159030717003   0.475876537183185   0.110891600868366   1.0000000
N2   N   0.954056519484938   0.618745612765828   0.110888003843085   1.0000000
N2   N   0.954109680470666   0.762433663936341   0.110912644852938   1.0000000
N2   N   0.096094851901509   0.905155180837687   0.110904978156244   1.0000000
N2   N   0.095926444156159   0.048105131301873   0.110926219550933   1.0000000
N2   N   0.095283030838769   0.190743539925937   0.110924615592806   1.0000000
N2   N   0.094294764435328   0.332907552395496   0.110924219603911   1.0000000
N2   N   0.094219226279084   0.475652192385525   0.110953972078437   1.0000000
N2   N   0.094963402326984   0.618729879954053   0.110954132817461   1.0000000
N2   N   0.095860466993047   0.762016953473053   0.110908550044019   1.0000000
N2   N   0.238337332934643   0.904836067608215   0.110902909899212   1.0000000
N2   N   0.238347100314036   0.047575394767891   0.110959657179732   1.0000000
N2   N   0.237778623776513   0.189980605816862   0.110948180775196   1.0000000
N2   N   0.236247113215060   0.331822304163199   0.110791810002042   1.0000000
N2   N   0.235794434818533   0.474578682530472   0.110788678922027   1.0000000
N2   N   0.235684966189015   0.618297563217285   0.110925655969015   1.0000000
N2   N   0.237845794658962   0.761844584899441   0.110944812569136   1.0000000
N2   N   0.380730732484335   0.904728137606041   0.110954119370013   1.0000000
N2   N   0.380907999283878   0.047564418498286   0.110941496442452   1.0000000
N2   N   0.380697172912436   0.190131230900313   0.110972923067415   1.0000000
N2   N   0.379510101672438   0.331878544603127   0.110874319105326   1.0000000
N2   N   0.376704605804187   0.471375144507384   0.110310224837211   1.0000000
N2   N   0.374841554109914   0.617111048346840   0.110726915700667   1.0000000
N2   N   0.379916337759330   0.761428586156831   0.110892934647690   1.0000000
N2   N   0.523219517678567   0.904299924644820   0.110848583892118   1.0000000
N2   N   0.523499998556106   0.047728003046149   0.110892344768768   1.0000000
N2   N   0.523422098078878   0.190837205529562   0.110907108935367   1.0000000
N2   N   0.522918288188591   0.334212482780256   0.110924306061988   1.0000000
N2   N   0.519417174394510   0.477816559690522   0.111386009132460   1.0000000
N2   N   0.499784003641532   0.602613670839588   0.112927509647085   1.0000000
N2   N   0.522171021676485   0.758978605712326   0.111374054881255   1.0000000
N2   N   0.666925143225718   0.908411763217213   0.110711786128028   1.0000000
N2   N   0.666613055760259   0.049183164150585   0.110865796695687   1.0000000
N2   N   0.666384660815851   0.190976224598963   0.110938407971288   1.0000000
N2   N   0.666201516027287   0.333018721517148   0.110887985614256   1.0000000
N2   N   0.665825782039518   0.474622193243462   0.111017789679302   1.0000000
N2   N   0.677161659910454   0.615312977739420   0.111706627122916   1.0000000
N2   N   0.678106881123384   0.781923511992541   0.112922178904454   1.0000000
N2   N   0.814521751954392   0.910509694883088   0.110652197031330   1.0000000
N2   N   0.810256369672874   0.049585109404866   0.110856493448653   1.0000000
N2   N   0.809510698795701   0.191291966038740   0.110995034824395   1.0000000
N2   N   0.809274625484829   0.333391357290716   0.110942199971032   1.0000000
N2   N   0.809574318820999   0.475655397985479   0.110869057343573   1.0000000
N2   N   0.814192489427308   0.618605237582672   0.111053771327941   1.0000000
N2   N   0.812423921837061   0.763453729666932   0.111282663668229   1.0000000
O2   O   0.639972712270244   0.662215706859578   0.112656034672417   1.0000000


