data_1
_audit_creation_method   'vasp2cif'
_cell_length_a    17.52789999999977
_cell_length_b    17.52789999999977
_cell_length_c    15.0
_cell_angle_alpha    90.0
_cell_angle_beta    90.0
_cell_angle_gamma    119.99999999999916

_symmetry_space_group_name_H-M    'P 1'
loop_
_atom_site_label
_atom_site_type_symbol
_atom_site_fract_x
_atom_site_fract_y
_atom_site_fract_z
_atom_site_occupancy
B2   B   0.904758626106474   0.952745045594190   0.111010481289380   1.0000000
B2   B   0.904552367520787   0.095449411414214   0.111036121426025   1.0000000
B2   B   0.904651631998428   0.238008598473989   0.111038146803002   1.0000000
B2   B   0.904875797510408   0.380742953726679   0.111007529312442   1.0000000
B2   B   0.905237647949255   0.523207839512467   0.111024729397668   1.0000000
B2   B   0.905164205212597   0.667008748162159   0.111060588809243   1.0000000
B2   B   0.905450926524098   0.810323702204994   0.111043994648839   1.0000000
B2   B   0.047225390744278   0.952776340877722   0.111014192076053   1.0000000
B2   B   0.047256676279810   0.095243067220526   0.111010479775377   1.0000000
B2   B   0.047201929778071   0.237993243820072   0.110999293414516   1.0000000
B2   B   0.047281231281350   0.380673415650925   0.111023601312725   1.0000000
B2   B   0.047501204194516   0.523581341393031   0.111012934809675   1.0000000
B2   B   0.048036402719769   0.666721351022707   0.111031290237575   1.0000000
B2   B   0.047532108665478   0.809105921264728   0.111002470875580   1.0000000
B2   B   0.190895810435268   0.952469590051522   0.111002467990577   1.0000000
B2   B   0.189678056441006   0.094550811854900   0.111043991044838   1.0000000
B2   B   0.189458766198158   0.237591104167184   0.111009437435152   1.0000000
B2   B   0.189740480367581   0.380703350652873   0.110991584932757   1.0000000
B2   B   0.189815547584973   0.523805196534440   0.111042502115684   1.0000000
B2   B   0.190088991709878   0.666316843334390   0.111054610357909   1.0000000
B2   B   0.190373419216678   0.809628181186318   0.110995300245541   1.0000000
B2   B   0.333280266476295   0.951965155021231   0.111031292358581   1.0000000
B2   B   0.332993044638842   0.094837475391403   0.111060587676240   1.0000000
B2   B   0.331689511795436   0.236242318929329   0.111046280680576   1.0000000
B2   B   0.332005592022841   0.379793094610036   0.111015342017352   1.0000000
B2   B   0.331623925082130   0.524194384892961   0.110998338057203   1.0000000
B2   B   0.332852908502557   0.667149020431441   0.111067075053653   1.0000000
B2   B   0.333684807106610   0.809912749546122   0.111054611886905   1.0000000
B2   B   0.476420273772968   0.952500460738486   0.111012941706671   1.0000000
B2   B   0.476793843387532   0.094763708986741   0.111024737685666   1.0000000
B2   B   0.476295603245383   0.236395823933694   0.111055237674985   1.0000000
B2   B   0.472723273538688   0.374736221612277   0.111080865990879   1.0000000
B2   B   0.472970539825171   0.527031003214829   0.111046552259241   1.0000000
B2   B   0.475807348194043   0.668377942967869   0.110998338484203   1.0000000
B2   B   0.476196570802557   0.810186547291022   0.111042509746686   1.0000000
B2   B   0.619328343699074   0.952720605523648   0.111023605060725   1.0000000
B2   B   0.619258750423323   0.095125803572591   0.111007532390442   1.0000000
B2   B   0.619103562527122   0.237434524249330   0.111021485192866   1.0000000
B2   B   0.619550454442619   0.380451297724383   0.111028997430449   1.0000000
B2   B   0.625265643073721   0.527278502323315   0.111080864358876   1.0000000
B2   B   0.620208535082967   0.667995980232161   0.111015339371355   1.0000000
B2   B   0.619298317172130   0.810261295180412   0.110991586106758   1.0000000
B2   B   0.762008481570922   0.952799854603929   0.110999300748518   1.0000000
B2   B   0.761993153887013   0.095350112040576   0.111038149146003   1.0000000
B2   B   0.762087885597864   0.237913745875141   0.111048552001581   1.0000000
B2   B   0.762567036605674   0.380898113522875   0.111021480073868   1.0000000
B2   B   0.763605831212306   0.523706232337616   0.111055234367991   1.0000000
B2   B   0.763759502825670   0.668312247186558   0.111046284806577   1.0000000
B2   B   0.762410552802816   0.810542889674841   0.111009445636151   1.0000000
C2   C   0.523944579031057   0.476057278657943   0.111116226417288   1.0000000
N2   N   0.952726365478289   0.905203326353001   0.111010412096352   1.0000000
N2   N   0.952371321069747   0.047630408769252   0.111006287069368   1.0000000
N2   N   0.952233680645143   0.190436895634348   0.111015591391316   1.0000000
N2   N   0.952400497796647   0.333244135610488   0.111011057454333   1.0000000
N2   N   0.952702308110439   0.476085270797596   0.110977617550938   1.0000000
N2   N   0.953161386478403   0.619434075288804   0.111024637479032   1.0000000
N2   N   0.952955360351334   0.762299040334968   0.111025231317924   1.0000000
N2   N   0.095340824910609   0.904660902563391   0.110976589584030   1.0000000
N2   N   0.094798414827994   0.047275354645708   0.111010424507353   1.0000000
N2   N   0.094798763470233   0.190236302419527   0.110982093213703   1.0000000
N2   N   0.094947726764600   0.333175828146717   0.110984006558644   1.0000000
N2   N   0.094939452541661   0.476274547773838   0.111012719017370   1.0000000
N2   N   0.095352840020923   0.619150587681253   0.111015684338352   1.0000000
N2   N   0.095459434707737   0.761969981484447   0.110987435401113   1.0000000
N2   N   0.238031640010555   0.904542154012260   0.110987433650116   1.0000000
N2   N   0.237702731025030   0.047046355208670   0.111025228859922   1.0000000
N2   N   0.236779001383193   0.189157878951527   0.111016441455653   1.0000000
N2   N   0.237519285048779   0.333008978314958   0.110987333683116   1.0000000
N2   N   0.236994104870730   0.476184025780176   0.110993992980824   1.0000000
N2   N   0.237784215356279   0.619232190592449   0.111047246769568   1.0000000
N2   N   0.237925963756406   0.762075702771594   0.111019511881214   1.0000000
N2   N   0.380851044645746   0.904648800610076   0.111015687128348   1.0000000
N2   N   0.380567596767197   0.046840093374601   0.111024646637033   1.0000000
N2   N   0.380333690731321   0.189343471291858   0.111055624408801   1.0000000
N2   N   0.378626097399428   0.330862546800000   0.111019497662874   1.0000000
N2   N   0.379269117867773   0.476757626509738   0.110997263189229   1.0000000
N2   N   0.380426665429441   0.619575128054555   0.111000896706409   1.0000000
N2   N   0.380769611808553   0.762217774725719   0.111047250297569   1.0000000
N2   N   0.523727245354161   0.905062610330338   0.111012726678363   1.0000000
N2   N   0.523916463890403   0.047299153477560   0.110977623006940   1.0000000
N2   N   0.523900591072769   0.189115799766911   0.111015701312974   1.0000000
N2   N   0.523377478344504   0.330558875373056   0.111018892252493   1.0000000
N2   N   0.523243859327258   0.620732397895230   0.110997261792231   1.0000000
N2   N   0.523817617968826   0.763007906591271   0.110994000744825   1.0000000
N2   N   0.666825889891282   0.905054085636396   0.110984007633645   1.0000000
N2   N   0.666757644159514   0.047601263975351   0.111011060819335   1.0000000
N2   N   0.666765500289219   0.190230636254452   0.111016706322092   1.0000000
N2   N   0.666849340699280   0.333152275730718   0.111003429868122   1.0000000
N2   N   0.669442917022950   0.476624273377492   0.111018891697488   1.0000000
N2   N   0.669139332375996   0.621375627329582   0.111019491210876   1.0000000
N2   N   0.666992632302047   0.762482325429216   0.110987333058116   1.0000000
N2   N   0.809765365692472   0.905202943779767   0.110982104414706   1.0000000
N2   N   0.809564872344653   0.047768110780859   0.111015597654317   1.0000000
N2   N   0.809564013630025   0.190437683513975   0.111028311533549   1.0000000
N2   N   0.809770913571543   0.333236156556784   0.111016701368096   1.0000000
N2   N   0.810885522366091   0.476101095056227   0.111015690430976   1.0000000
N2   N   0.810658286719138   0.619668086233679   0.111055624088801   1.0000000
N2   N   0.810843879208476   0.763222726312802   0.111016459124648   1.0000000


