data_1
_audit_creation_method   'vasp2cif'
_cell_length_a    17.52789999999977
_cell_length_b    17.52789999999977
_cell_length_c    15.0
_cell_angle_alpha    90.0
_cell_angle_beta    90.0
_cell_angle_gamma    119.99999999999916

_symmetry_space_group_name_H-M    'P 1'
loop_
_atom_site_label
_atom_site_type_symbol
_atom_site_fract_x
_atom_site_fract_y
_atom_site_fract_z
_atom_site_occupancy
Sb2   Sb   0.520203708234793   0.492903519921538   0.111354288578663   1.0000000
B2   B   0.906153830117867   0.953032414392235   0.111035229320530   1.0000000
B2   B   0.903138797873265   0.093538811924602   0.111078198841643   1.0000000
B2   B   0.902658646007138   0.235923709004079   0.111079233520813   1.0000000
B2   B   0.903805338765983   0.379274396657350   0.111060779902002   1.0000000
B2   B   0.908139528755370   0.523764129181523   0.111111035892276   1.0000000
B2   B   0.911333847514871   0.668837772361709   0.111056660855957   1.0000000
B2   B   0.911196857765116   0.813475779201361   0.111000239401946   1.0000000
B2   B   0.049520923582255   0.953398219220989   0.111014963016137   1.0000000
B2   B   0.046882837414486   0.094761739682267   0.111028984646133   1.0000000
B2   B   0.044804807585284   0.236200198855181   0.111004878653751   1.0000000
B2   B   0.044639244398665   0.378998558442230   0.111012557236465   1.0000000
B2   B   0.046626880740527   0.523028141923209   0.111091973288350   1.0000000
B2   B   0.049509404895454   0.667362212801929   0.111099939499309   1.0000000
B2   B   0.050777109489037   0.811037045037528   0.111046392102953   1.0000000
B2   B   0.191475496021522   0.952614213427622   0.110947786246021   1.0000000
B2   B   0.188843773335168   0.093472689382582   0.111016666443442   1.0000000
B2   B   0.187894407066289   0.237088374907803   0.111056754197693   1.0000000
B2   B   0.185755846185614   0.379004624545274   0.111013156664987   1.0000000
B2   B   0.185569033819351   0.522655003706859   0.111035826674649   1.0000000
B2   B   0.188414121089213   0.666776298545495   0.111096738245123   1.0000000
B2   B   0.191343425988184   0.810119876173240   0.110944844858965   1.0000000
B2   B   0.333517648094180   0.952034063024127   0.110818307143464   1.0000000
B2   B   0.332832787935075   0.093918667329463   0.110961666440913   1.0000000
B2   B   0.327243721052026   0.232387636975665   0.111117423157830   1.0000000
B2   B   0.329387225323107   0.382449845905294   0.111311568310378   1.0000000
B2   B   0.323865883094731   0.522025052908088   0.111216223777716   1.0000000
B2   B   0.327071080049870   0.666993616545669   0.111019300084450   1.0000000
B2   B   0.332515751544138   0.809655121803972   0.110862273477627   1.0000000
B2   B   0.475638790065219   0.950516978408362   0.110696822174692   1.0000000
B2   B   0.475872051573027   0.093069751233220   0.110826537394666   1.0000000
B2   B   0.475300568165883   0.234203812406403   0.111039953352958   1.0000000
B2   B   0.462946554647010   0.362187345035445   0.111264522729157   1.0000000
B2   B   0.483116025027191   0.580004769698270   0.111616852404768   1.0000000
B2   B   0.464298806633272   0.662027076959976   0.111312295314722   1.0000000
B2   B   0.474299837709022   0.806990975595265   0.110885319437139   1.0000000
B2   B   0.617721806108911   0.949547355637982   0.110850365938528   1.0000000
B2   B   0.618255301569327   0.093071668143612   0.110858782709390   1.0000000
B2   B   0.618820455763790   0.236374623642097   0.110949142247844   1.0000000
B2   B   0.620709743462229   0.380658732948458   0.111120901993209   1.0000000
B2   B   0.647609779618262   0.537451232943775   0.111122028941709   1.0000000
B2   B   0.632053606079793   0.669859239811031   0.111320446592799   1.0000000
B2   B   0.617199715083254   0.805559352254562   0.110989993661709   1.0000000
B2   B   0.760831688985899   0.950365454890290   0.111010481952994   1.0000000
B2   B   0.760361986557684   0.092910329918426   0.111055473121633   1.0000000
B2   B   0.760869346743354   0.236025408351305   0.111051380984432   1.0000000
B2   B   0.762854740441252   0.379770898281015   0.111062553904805   1.0000000
B2   B   0.771395890925417   0.525351100808040   0.111079324981337   1.0000000
B2   B   0.777308438669175   0.674806132493393   0.110949144409154   1.0000000
B2   B   0.766241777832463   0.811399075132352   0.110894555844225   1.0000000
N2   N   0.955515315784690   0.907208644003807   0.110985149677700   1.0000000
N2   N   0.952024246077317   0.047403214566319   0.111020706930186   1.0000000
N2   N   0.949951532721500   0.188360618505181   0.111028458861593   1.0000000
N2   N   0.949998497132353   0.330973994489297   0.111006698139034   1.0000000
N2   N   0.952578287942959   0.474567842597574   0.111057519744607   1.0000000
N2   N   0.955690799834466   0.619185745602881   0.111071454535833   1.0000000
N2   N   0.956786078999771   0.763957956402740   0.111020915250352   1.0000000
N2   N   0.097010178828932   0.905758861795307   0.110971510330255   1.0000000
N2   N   0.094774329952921   0.047402819604291   0.110989529736496   1.0000000
N2   N   0.093099942401724   0.189437402640062   0.110985503227318   1.0000000
N2   N   0.091217355602315   0.330907159837556   0.110956215030086   1.0000000
N2   N   0.091653486170657   0.474203617694076   0.111021037637657   1.0000000
N2   N   0.094403174533498   0.618405359707437   0.111098991938232   1.0000000
N2   N   0.096924773646437   0.762534426070432   0.111004545201778   1.0000000
N2   N   0.238782870471048   0.905000674526237   0.110843243028869   1.0000000
N2   N   0.237947746039707   0.047215087376296   0.110939801688770   1.0000000
N2   N   0.233828946488205   0.187340051549539   0.111013320357586   1.0000000
N2   N   0.234030329675805   0.332155295189401   0.111072936211875   1.0000000
N2   N   0.230293571720072   0.473738326175486   0.110973892741361   1.0000000
N2   N   0.233174800419316   0.618117643593386   0.111045577527640   1.0000000
N2   N   0.237645925536532   0.761986022904532   0.110956145397553   1.0000000
N2   N   0.380732657920392   0.904372027654344   0.110701840964875   1.0000000
N2   N   0.380903049486284   0.046799217218364   0.110818918749809   1.0000000
N2   N   0.379511996684390   0.188592274172340   0.110998959866624   1.0000000
N2   N   0.371347257148180   0.325891582114290   0.111286099898716   1.0000000
N2   N   0.371843836415020   0.477857064594703   0.111471376912266   1.0000000
N2   N   0.370926425192378   0.618366272633384   0.111124123605105   1.0000000
N2   N   0.378965242894906   0.761672814957550   0.110875389335538   1.0000000
N2   N   0.522662176210838   0.902268943750714   0.110698799906117   1.0000000
N2   N   0.523321421067997   0.045555434254596   0.110698939201729   1.0000000
N2   N   0.523566374343297   0.187964001098820   0.110879136964257   1.0000000
N2   N   0.523076853298050   0.329168009721977   0.111150323859738   1.0000000
N2   N   0.520595186645852   0.757340284154990   0.111080472904392   1.0000000
N2   N   0.664980445169502   0.901225294386477   0.110903507422407   1.0000000
N2   N   0.665327008031776   0.044932908419030   0.110874472566266   1.0000000
N2   N   0.665866727611470   0.188467644877301   0.110918255597976   1.0000000
N2   N   0.667018027814055   0.332152188045318   0.110997988150099   1.0000000
N2   N   0.677563586831979   0.477221042737135   0.111090363430355   1.0000000
N2   N   0.686051479475349   0.629690667502669   0.110969914462023   1.0000000
N2   N   0.670154411216911   0.762318835029851   0.110859385753603   1.0000000
N2   N   0.811035135082247   0.905416097235511   0.110968386449038   1.0000000
N2   N   0.807892999821090   0.045400294677278   0.111034415663376   1.0000000
N2   N   0.807741798674911   0.188055179677851   0.111058709341106   1.0000000
N2   N   0.808807781669090   0.331270009107269   0.111028777469846   1.0000000
N2   N   0.814184354668009   0.475243882996513   0.111060674361767   1.0000000
N2   N   0.818120809020260   0.621269315162906   0.110983332880948   1.0000000
N2   N   0.817915259344238   0.767780476790679   0.110897664193349   1.0000000


