data_1
_audit_creation_method   'vasp2cif'
_cell_length_a    17.52789999999977
_cell_length_b    17.52789999999977
_cell_length_c    15.0
_cell_angle_alpha    90.0
_cell_angle_beta    90.0
_cell_angle_gamma    119.99999999999916

_symmetry_space_group_name_H-M    'P 1'
loop_
_atom_site_label
_atom_site_type_symbol
_atom_site_fract_x
_atom_site_fract_y
_atom_site_fract_z
_atom_site_occupancy
B2   B   0.905048778027940   0.952491392314009   0.103017294932599   1.0000000
B2   B   0.903890408167364   0.094939671423646   0.098959758435854   1.0000000
B2   B   0.903746604914176   0.238168710668170   0.100116673061123   1.0000000
B2   B   0.904314393630067   0.381473951087500   0.105603841352817   1.0000000
B2   B   0.905029914296570   0.524563215074778   0.111614246317828   1.0000000
B2   B   0.906681489672344   0.667671072903254   0.114077899243291   1.0000000
B2   B   0.906680986874960   0.810632608660818   0.109759661821023   1.0000000
B2   B   0.047798204883470   0.952063507647644   0.098949868341883   1.0000000
B2   B   0.046128859841033   0.094139145776950   0.093267125390554   1.0000000
B2   B   0.045572632074489   0.237319377617965   0.092743613593690   1.0000000
B2   B   0.046277020147258   0.380917700075365   0.098671221173248   1.0000000
B2   B   0.047572013875524   0.524218475315358   0.105347198230014   1.0000000
B2   B   0.048960756228844   0.667258417604295   0.107605083218957   1.0000000
B2   B   0.049019749017738   0.810005021134614   0.105186964564758   1.0000000
B2   B   0.191099681232146   0.952327085601191   0.101197640256245   1.0000000
B2   B   0.188790904566609   0.093695802969648   0.094728627837526   1.0000000
B2   B   0.186908935774135   0.235634786195249   0.090116903308477   1.0000000
B2   B   0.187496973091427   0.379593782054904   0.092893803193711   1.0000000
B2   B   0.189618934102342   0.523507734701106   0.103766789716225   1.0000000
B2   B   0.191629269355225   0.666776821331524   0.108078584225986   1.0000000
B2   B   0.191826526421039   0.809805493044600   0.106133388027608   1.0000000
B2   B   0.334141658680821   0.952466376873318   0.106187536790223   1.0000000
B2   B   0.332814739762746   0.095307235659519   0.104508048297646   1.0000000
B2   B   0.329233633450976   0.238095822268413   0.105864632459586   1.0000000
B2   B   0.328294477199236   0.374238322376364   0.097405201793649   1.0000000
B2   B   0.331263306554369   0.521827792659010   0.104526933528490   1.0000000
B2   B   0.334018481711240   0.665308129273406   0.116528409440406   1.0000000
B2   B   0.334445984668975   0.809184037618856   0.111303418516755   1.0000000
B2   B   0.476813923332365   0.951946010225029   0.110090263122593   1.0000000
B2   B   0.476099354204145   0.094974019714307   0.108702305758811   1.0000000
B2   B   0.472863951916047   0.236300548035864   0.115577241803365   1.0000000
B2   B   0.475332673407486   0.664093523237426   0.132792626398768   1.0000000
B2   B   0.476862414961474   0.808305558946678   0.118296107440273   1.0000000
B2   B   0.619298942415128   0.952249056856253   0.111720929164022   1.0000000
B2   B   0.619034948185856   0.095503427875222   0.108412035582639   1.0000000
B2   B   0.618534597357574   0.238642841907662   0.113769928681151   1.0000000
B2   B   0.619586721629581   0.382622530061958   0.128228715043775   1.0000000
B2   B   0.624773606267929   0.529924459825210   0.149676236934560   1.0000000
B2   B   0.624846321617973   0.670225913014974   0.138341344995361   1.0000000
B2   B   0.619931534037143   0.809592482670411   0.121955943038060   1.0000000
B2   B   0.762058726783629   0.952474398806366   0.108940734990469   1.0000000
B2   B   0.761536133902929   0.095352699187494   0.105067680540188   1.0000000
B2   B   0.761408851857297   0.238548066129390   0.107320318769403   1.0000000
B2   B   0.762023179989150   0.381739465813944   0.115692978022899   1.0000000
B2   B   0.762547049400347   0.525019797089328   0.125508335973173   1.0000000
B2   B   0.766474519883822   0.669737239857703   0.127038249246354   1.0000000
B2   B   0.763955063460848   0.810961215954116   0.117204942334091   1.0000000
N2   N   0.952782181279659   0.904910677122366   0.103178443149090   1.0000000
N2   N   0.951206880491767   0.046982956884413   0.097476798788975   1.0000000
N2   N   0.950639408356494   0.189989014678957   0.096362646261305   1.0000000
N2   N   0.951243406063625   0.333499370189031   0.100840156706646   1.0000000
N2   N   0.952231574862481   0.476815157916327   0.107037667694868   1.0000000
N2   N   0.953542730252018   0.619784786065054   0.110678927573922   1.0000000
N2   N   0.953704304794918   0.762526703876560   0.109294961309622   1.0000000
N2   N   0.095761128088867   0.904667397248886   0.101085325984080   1.0000000
N2   N   0.093699292543313   0.046322627338760   0.093743077535251   1.0000000
N2   N   0.092013840795289   0.188751470263107   0.090082404298407   1.0000000
N2   N   0.092594088367939   0.332615719524092   0.093521083648483   1.0000000
N2   N   0.094475851233170   0.476272907407271   0.102245205746776   1.0000000
N2   N   0.096232375875800   0.619462633172176   0.106667506267328   1.0000000
N2   N   0.096510934428110   0.762282779154170   0.106060506314861   1.0000000
N2   N   0.238946723026317   0.904709044729834   0.104420432781104   1.0000000
N2   N   0.237512412396718   0.046892857616442   0.099263338184123   1.0000000
N2   N   0.233762013600469   0.187371873371333   0.093209563330582   1.0000000
N2   N   0.232129140921494   0.330321797579714   0.089236425160102   1.0000000
N2   N   0.235788324477511   0.475266577821145   0.099527340723590   1.0000000
N2   N   0.238968184796299   0.618790491558826   0.109258667657031   1.0000000
N2   N   0.239345964453889   0.761915231138666   0.108635342157314   1.0000000
N2   N   0.381768282752709   0.904355703527088   0.109091748100688   1.0000000
N2   N   0.380999842046343   0.047467340949908   0.106149034944011   1.0000000
N2   N   0.378398237322124   0.189705072882518   0.109397725416969   1.0000000
N2   N   0.367800381112438   0.326600518687222   0.113215389729802   1.0000000
N2   N   0.367633337384653   0.468271431459520   0.083487317768707   1.0000000
N2   N   0.381341195200356   0.616411989346801   0.122616805159716   1.0000000
N2   N   0.381844741569637   0.760765001142730   0.116727549771746   1.0000000
N2   N   0.524222190540094   0.903631471696862   0.113275060701305   1.0000000
N2   N   0.523993970940111   0.047218047989773   0.108588911434857   1.0000000
N2   N   0.523332958842481   0.189992177144703   0.112236241134255   1.0000000
N2   N   0.528309135301186   0.327976439206218   0.124489944143647   1.0000000
N2   N   0.530199148019562   0.489427771179784   0.182727797717405   1.0000000
N2   N   0.530264360366608   0.622347620050448   0.148535346294288   1.0000000
N2   N   0.524375695070134   0.759653627070165   0.125435426099813   1.0000000
N2   N   0.666791159202361   0.904290466768330   0.114096818869470   1.0000000
N2   N   0.666470143925665   0.047423613111576   0.107967131402965   1.0000000
N2   N   0.666348431014455   0.190890082780974   0.109238134066985   1.0000000
N2   N   0.667218260462747   0.334311947339209   0.119856523562312   1.0000000
N2   N   0.666683546828303   0.478530639026935   0.136430212404598   1.0000000
N2   N   0.671838188648977   0.623057492447757   0.140985976542225   1.0000000
N2   N   0.668874468745223   0.763323115514368   0.124996725566390   1.0000000
N2   N   0.810023074341686   0.905116936242500   0.109124043597134   1.0000000
N2   N   0.808857506579926   0.047344842124346   0.103905902691821   1.0000000
N2   N   0.808719095070032   0.190595788795719   0.103711360820391   1.0000000
N2   N   0.809221455245648   0.333993498772216   0.108982055378441   1.0000000
N2   N   0.809595719067062   0.477304629058324   0.117342194037285   1.0000000
N2   N   0.811445895474009   0.620372162542971   0.122995064767942   1.0000000
N2   N   0.811791050568182   0.763577918207794   0.117765747018353   1.0000000
O2   O   0.490152588325593   0.533176279979600   0.181240550994978   1.0000000


