data_1
_audit_creation_method   'vasp2cif'
_cell_length_a    17.52789999999977
_cell_length_b    17.52789999999977
_cell_length_c    15.0
_cell_angle_alpha    90.0
_cell_angle_beta    90.0
_cell_angle_gamma    119.99999999999916

_symmetry_space_group_name_H-M    'P 1'
loop_
_atom_site_label
_atom_site_type_symbol
_atom_site_fract_x
_atom_site_fract_y
_atom_site_fract_z
_atom_site_occupancy
Al2   Al   0.560929701323729   0.439071700593249   0.111618665605727   1.0000000
B2   B   0.906369703551589   0.955463040913952   0.110930528560554   1.0000000
B2   B   0.903574786500785   0.096427234695212   0.110988381469775   1.0000000
B2   B   0.903292703652089   0.238720632065298   0.110993168149506   1.0000000
B2   B   0.905114743381468   0.381794731211945   0.110867192636291   1.0000000
B2   B   0.907477933660286   0.525359061735265   0.110780700352936   1.0000000
B2   B   0.908530191826509   0.669515997247349   0.111073160177877   1.0000000
B2   B   0.910116120224227   0.814763534208130   0.110891780113588   1.0000000
B2   B   0.047717132949852   0.952284888246101   0.110856251007992   1.0000000
B2   B   0.044538980282026   0.093632317644325   0.110930528560554   1.0000000
B2   B   0.043701906862947   0.237072336987829   0.110883558386452   1.0000000
B2   B   0.044999918679316   0.381080130924410   0.110873666562412   1.0000000
B2   B   0.047526034307823   0.524616393007079   0.110834416336023   1.0000000
B2   B   0.049206504703304   0.667526204225183   0.110890409347618   1.0000000
B2   B   0.049315971406251   0.810225183922755   0.110889088125741   1.0000000
B2   B   0.189776837273229   0.950686049789769   0.110889088125743   1.0000000
B2   B   0.185238486987906   0.089885900971781   0.110891780113588   1.0000000
B2   B   0.181879843142579   0.231929818018511   0.110758880927996   1.0000000
B2   B   0.183514638453033   0.378643774337403   0.110760320144284   1.0000000
B2   B   0.187453036059254   0.523744462654865   0.110905903984234   1.0000000
B2   B   0.190996828261831   0.666789482521703   0.111062928140090   1.0000000
B2   B   0.190947032326983   0.809054988869044   0.111016392640410   1.0000000
B2   B   0.332475816971787   0.950795516492685   0.110890409347618   1.0000000
B2   B   0.330486023949727   0.091471829369446   0.111073160177877   1.0000000
B2   B   0.321047531676378   0.226411897771267   0.111161601645365   1.0000000
B2   B   0.316648150220251   0.370844217022615   0.111146469517300   1.0000000
B2   B   0.326148690956435   0.521285949858438   0.111418118895387   1.0000000
B2   B   0.333636076699953   0.666365944496966   0.111155915142443   1.0000000
B2   B   0.333212538675269   0.809005192934150   0.111062928140090   1.0000000
B2   B   0.475385628189928   0.952475986888232   0.110834416336023   1.0000000
B2   B   0.474642959461741   0.092524087535771   0.110780700352936   1.0000000
B2   B   0.472383635402661   0.230530499015461   0.111777339044667   1.0000000
B2   B   0.448438455184807   0.357480290850734   0.110719587017524   1.0000000
B2   B   0.478716071338522   0.673853330240625   0.111418118895387   1.0000000
B2   B   0.476257558542109   0.812548985136736   0.110905903984234   1.0000000
B2   B   0.618921890271620   0.955002102516701   0.110873666562412   1.0000000
B2   B   0.618207289984050   0.094887277814477   0.110867192636291   1.0000000
B2   B   0.618877769807910   0.235113258812960   0.111032473501918   1.0000000
B2   B   0.624606126609566   0.375395894586352   0.110386571918464   1.0000000
B2   B   0.642521730345223   0.551563566012210   0.110719587017522   1.0000000
B2   B   0.629157804173308   0.683353870976809   0.111146469517299   1.0000000
B2   B   0.621358246858634   0.816487382742997   0.110760320144284   1.0000000
B2   B   0.762929684208105   0.956300114333004   0.110883558386452   1.0000000
B2   B   0.761281389130703   0.096709317543911   0.110993168149506   1.0000000
B2   B   0.761741022049732   0.238260999146282   0.110998150381865   1.0000000
B2   B   0.764888762383024   0.381124251388125   0.111032473501918   1.0000000
B2   B   0.769471522180587   0.527618385794242   0.111777339044667   1.0000000
B2   B   0.773590123424765   0.678954489520550   0.111161601645365   1.0000000
B2   B   0.768072203177400   0.818122178053466   0.110758880927996   1.0000000
N2   N   0.954428655703252   0.908053965932386   0.110854685780067   1.0000000
N2   N   0.951069027272473   0.048932374645524   0.110989943358238   1.0000000
N2   N   0.949756451507107   0.190735292315265   0.110964718720895   1.0000000
N2   N   0.950762618295931   0.333535340939190   0.110912706462047   1.0000000
N2   N   0.953047235352383   0.476876471970522   0.110714677115276   1.0000000
N2   N   0.954434398312161   0.620438934074467   0.110838076058645   1.0000000
N2   N   0.955070939796476   0.764276909399339   0.110838106462272   1.0000000
N2   N   0.095392211703772   0.904609190214161   0.110865785098403   1.0000000
N2   N   0.091947435985596   0.045572746214655   0.110854685780067   1.0000000
N2   N   0.088919202054254   0.187297896261090   0.110823747024758   1.0000000
N2   N   0.089857930268504   0.331857110991820   0.110824091845179   1.0000000
N2   N   0.093012085295041   0.476144242242735   0.110861490771996   1.0000000
N2   N   0.095913471532760   0.619555436192113   0.110899817321312   1.0000000
N2   N   0.096283856775192   0.762239129067419   0.110944125574046   1.0000000
N2   N   0.237762272850547   0.903717545142804   0.110944125574046   1.0000000
N2   N   0.235724492518651   0.044930462121538   0.110838106462272   1.0000000
N2   N   0.228392730962053   0.182600858043126   0.110926497013026   1.0000000
N2   N   0.224743474197334   0.325529424774181   0.110634752841012   1.0000000
N2   N   0.231550267583494   0.474419594809403   0.110795509499543   1.0000000
N2   N   0.237927259652258   0.619031791677476   0.111060930608738   1.0000000
N2   N   0.238333873642230   0.761667528275701   0.111099277595439   1.0000000
N2   N   0.380445965725922   0.904087930385215   0.110899817321313   1.0000000
N2   N   0.379562467843479   0.045567003605876   0.110838076058645   1.0000000
N2   N   0.376758539847234   0.186005083671827   0.111527067383537   1.0000000
N2   N   0.359683460134028   0.318161442473960   0.110883369223950   1.0000000
N2   N   0.359091366097556   0.463254186358817   0.112111765647851   1.0000000
N2   N   0.381299262696167   0.618702139221914   0.111321449132895   1.0000000
N2   N   0.380969610240529   0.762074142265777   0.111060930608738   1.0000000
N2   N   0.523857159674309   0.906989316622951   0.110861490771989   1.0000000
N2   N   0.523124929946464   0.046954166565615   0.110714677115276   1.0000000
N2   N   0.522847561112360   0.186971141148189   0.110958979994069   1.0000000
N2   N   0.522454775711984   0.324577834264498   0.112244446689893   1.0000000
N2   N   0.536747215558222   0.640910035820433   0.112111765647851   1.0000000
N2   N   0.525581807107628   0.768451134334523   0.110795509499538   1.0000000
N2   N   0.668144290925155   0.910143471649520   0.110824091845181   1.0000000
N2   N   0.666466060977818   0.049238783622202   0.110912706462047   1.0000000
N2   N   0.666603794071161   0.189455692161532   0.110967843089914   1.0000000
N2   N   0.670187634592912   0.329813767324091   0.110942821704893   1.0000000
N2   N   0.675423567652534   0.477546626204994   0.112244446689893   1.0000000
N2   N   0.681839959443108   0.640317941783946   0.110883369223950   1.0000000
N2   N   0.674471977142756   0.775257927720595   0.110634752841012   1.0000000
N2   N   0.812703505656943   0.911082199863744   0.110823747024758   1.0000000
N2   N   0.809266109602754   0.050244950410900   0.110964718720895   1.0000000
N2   N   0.808739169828447   0.191262232089589   0.111008915774937   1.0000000
N2   N   0.810545709756449   0.333397607845738   0.110967843089914   1.0000000
N2   N   0.813030260769759   0.477153840804642   0.110958979994069   1.0000000
N2   N   0.813996318246159   0.623242862070790   0.111527067383537   1.0000000
N2   N   0.817400543874926   0.771608670955948   0.110926497013026   1.0000000
Sb2   Sb   0.487187213103446   0.512814808093572   0.112234085776837   1.0000000


