data_1
_audit_creation_method   'vasp2cif'
_cell_length_a    14.93631414619966
_cell_length_b    14.936314146199727
_cell_length_c    13.341276283792837
_cell_angle_alpha    90.0
_cell_angle_beta    90.0
_cell_angle_gamma    119.99999999999984

_symmetry_space_group_name_H-M    'P 1'
loop_
_atom_site_label
_atom_site_type_symbol
_atom_site_fract_x
_atom_site_fract_y
_atom_site_fract_z
_atom_site_occupancy
S2   S   0.529209722045579   0.431271527689454   0.375000000000000   1.0000000
N2   N   0.111096308023287   0.055544200805443   0.125030333470950   1.0000000
N2   N   0.611084745807742   0.555557671483839   0.124569731522225   1.0000000
N2   N   0.444454679603699   0.055554146984736   0.125055848923464   1.0000000
N2   N   0.944427466593309   0.555549241916323   0.125073354031410   1.0000000
N2   N   0.777782472642876   0.055557902988106   0.125009003995685   1.0000000
N2   N   0.111105503499937   0.722219418416633   0.624965576484458   1.0000000
N2   N   0.444454679603699   0.722233865952299   0.624944151076537   1.0000000
N2   N   0.277742581834124   0.222206868122797   0.625092531377367   1.0000000
N2   N   0.777755469366972   0.722210145052253   0.624905728232134   1.0000000
N2   N   0.611109830255420   0.222204318279347   0.624980891135464   1.0000000
N2   N   0.944433259516749   0.222219506939178   0.624988502210297   1.0000000
N2   N   0.277783394228212   0.722226262887664   0.125025800676994   1.0000000
N2   N   0.111082541082937   0.222207937208133   0.125025965395472   1.0000000
N2   N   0.444451635023451   0.222219413161548   0.124886779102956   1.0000000
N2   N   0.611109830255420   0.722238845309403   0.125019108864535   1.0000000
N2   N   0.944427466593309   0.722211558010321   0.125073354031410   1.0000000
N2   N   0.777777901607832   0.222217655339456   0.125030995285373   1.0000000
N2   N   0.111105415744869   0.888883307197867   0.624981964971556   1.0000000
N2   N   0.444455584227921   0.888894458780625   0.624971379397731   1.0000000
N2   N   0.277742581834124   0.388869047044655   0.625092531377367   1.0000000
N2   N   0.611084745807742   0.388860407657230   0.625430268477774   1.0000000
N2   N   0.777777901607832   0.888893579601705   0.624969004714627   1.0000000
N2   N   0.944433404692803   0.388888168409505   0.624960058683624   1.0000000
N2   N   0.111096308023287   0.388885440551173   0.125030333470950   1.0000000
N2   N   0.277783394228212   0.888890464673876   0.125025800676994   1.0000000
N2   N   0.611121253709600   0.888903690353232   0.125022920273361   1.0000000
N2   N   0.444361248922838   0.388847291128084   0.123319706660585   1.0000000
N2   N   0.944433404692803   0.888878569616626   0.125039941316376   1.0000000
N2   N   0.777755469366972   0.388878657648048   0.125094271767865   1.0000000
N2   N   0.277779941759102   0.555557190943791   0.624969719049888   1.0000000
N2   N   0.111096308023287   0.055544200805443   0.624969666529048   1.0000000
N2   N   0.611084745807742   0.555557671483839   0.625430268477774   1.0000000
N2   N   0.444454679603699   0.055554146984736   0.624944151076537   1.0000000
N2   N   0.944427466593309   0.555549241916323   0.624926645968591   1.0000000
N2   N   0.111105415744869   0.555555441880331   0.125018035028444   1.0000000
N2   N   0.777782472642876   0.055557902988106   0.624990996004315   1.0000000
N2   N   0.277779941759102   0.055556084148645   0.125030280950112   1.0000000
N2   N   0.444451635023451   0.555565555195238   0.124886779102956   1.0000000
N2   N   0.777743304397087   0.555538318865212   0.125099814339181   1.0000000
N2   N   0.611121253709600   0.055550896689697   0.125022920273361   1.0000000
N2   N   0.444451635023451   0.555565555195238   0.625113220897044   1.0000000
N2   N   0.944433259516749   0.055547085910906   0.125011497789703   1.0000000
N2   N   0.277783394228212   0.722226262887664   0.624974199323006   1.0000000
N2   N   0.111082541082937   0.222207937208133   0.624974034604529   1.0000000
N2   N   0.444451635023451   0.222219413161548   0.625113220897044   1.0000000
N2   N   0.611109830255420   0.722238845309403   0.624980891135464   1.0000000
N2   N   0.944427466593309   0.722211558010321   0.624926645968591   1.0000000
N2   N   0.777777901607832   0.222217655339456   0.624969004714627   1.0000000
N2   N   0.111105503499937   0.722219418416633   0.125034423515541   1.0000000
N2   N   0.444454679603699   0.722233865952299   0.125055848923464   1.0000000
N2   N   0.277742581834124   0.222206868122797   0.124907468622633   1.0000000
N2   N   0.777755469366972   0.722210145052253   0.125094271767865   1.0000000
N2   N   0.611109830255420   0.222204318279347   0.125019108864535   1.0000000
N2   N   0.944433259516749   0.222219506939178   0.125011497789703   1.0000000
N2   N   0.111096308023287   0.388885440551173   0.624969666529048   1.0000000
N2   N   0.277783394228212   0.888890464673876   0.624974199323006   1.0000000
N2   N   0.611121253709600   0.888903690353232   0.624977079726639   1.0000000
N2   N   0.444361248922838   0.388847291128084   0.626680293339415   1.0000000
N2   N   0.944433404692803   0.888878569616626   0.624960058683624   1.0000000
N2   N   0.111105415744869   0.888883307197867   0.125018035028444   1.0000000
N2   N   0.777755469366972   0.388878657648048   0.624905728232134   1.0000000
N2   N   0.444455584227921   0.888894458780625   0.125028620602269   1.0000000
N2   N   0.277742581834124   0.388869047044655   0.124907468622633   1.0000000
N2   N   0.277779941759102   0.555557190943791   0.125030280950112   1.0000000
N2   N   0.611084745807742   0.388860407657230   0.124569731522225   1.0000000
N2   N   0.777777901607832   0.888893579601705   0.125030995285373   1.0000000
N2   N   0.944433404692803   0.388888168409505   0.125039941316376   1.0000000
N2   N   0.111105415744869   0.555555441880331   0.624981964971556   1.0000000
N2   N   0.277779941759102   0.055556084148645   0.624969719049888   1.0000000
N2   N   0.777743304397087   0.555538318865212   0.624900185660819   1.0000000
N2   N   0.611121253709600   0.055550896689697   0.624977079726639   1.0000000
N2   N   0.944433259516749   0.055547085910906   0.624988502210297   1.0000000
N2   N   0.056765663413005   0.111701239023635   0.375000000000000   1.0000000
N2   N   0.557003665019914   0.618467711242747   0.375000000000000   1.0000000
N2   N   0.388501778071107   0.107109924160965   0.375000000000000   1.0000000
N2   N   0.887764154789617   0.610548744061480   0.375000000000000   1.0000000
N2   N   0.723602007589606   0.111159307971600   0.375000000000000   1.0000000
N2   N   0.055548297334173   0.777774339815201   0.875000000000000   1.0000000
N2   N   0.388882061470442   0.777775834222369   0.875000000000000   1.0000000
N2   N   0.222215136929427   0.277774235131381   0.875000000000000   1.0000000
N2   N   0.722216766524240   0.777773171556429   0.875000000000000   1.0000000
N2   N   0.555548426951793   0.277774553425213   0.875000000000000   1.0000000
N2   N   0.888885562759710   0.277777878783006   0.875000000000000   1.0000000
N2   N   0.221419983426387   0.777376658379862   0.375000000000000   1.0000000
N2   N   0.056765663413005   0.278397757722705   0.375000000000000   1.0000000
N2   N   0.384775682317763   0.264261119480915   0.375000000000000   1.0000000
N2   N   0.556182037052219   0.780986358721050   0.375000000000000   1.0000000
N2   N   0.889354662171305   0.778442253306598   0.375000000000000   1.0000000
N2   N   0.723769950391345   0.276816965308634   0.375000000000000   1.0000000
N2   N   0.055548404215650   0.944439671455485   0.875000000000000   1.0000000
N2   N   0.388882061470442   0.944439560581408   0.875000000000000   1.0000000
N2   N   0.222214235399365   0.444443062604449   0.875000000000000   1.0000000
N2   N   0.555553155658150   0.444443244495739   0.875000000000000   1.0000000
N2   N   0.722215566093299   0.944440577384996   0.875000000000000   1.0000000
N2   N   0.888885295637934   0.444443230472127   0.875000000000000   1.0000000
N2   N   0.055773987968503   0.444846690539500   0.375000000000000   1.0000000
N2   N   0.221567176545113   0.943162987279552   0.375000000000000   1.0000000
N2   N   0.556084687855818   0.944709010594573   0.375000000000000   1.0000000
N2   N   0.384775682317763   0.453847896170184   0.375000000000000   1.0000000
N2   N   0.890282038265172   0.945604183248090   0.375000000000000   1.0000000
N2   N   0.722762866093681   0.443256547893586   0.375000000000000   1.0000000
N2   N   0.222212716902011   0.611107976934531   0.875000000000000   1.0000000
N2   N   0.055549774488937   0.111106359800351   0.875000000000000   1.0000000
N2   N   0.555548426951793   0.611107206859916   0.875000000000000   1.0000000
N2   N   0.388881597451679   0.111104671974483   0.875000000000000   1.0000000
N2   N   0.888885601201544   0.611109467267443   0.875000000000000   1.0000000
N2   N   0.054786799467761   0.610946480027179   0.375000000000000   1.0000000
N2   N   0.722215566093299   0.111108322041637   0.875000000000000   1.0000000
N2   N   0.221973763049494   0.109651874697250   0.375000000000000   1.0000000
N2   N   0.388501778071107   0.614725187243486   0.375000000000000   1.0000000
N2   N   0.722762866093681   0.612839651533431   0.375000000000000   1.0000000
N2   N   0.556182037052219   0.108529011664504   0.375000000000000   1.0000000
N2   N   0.388881597451679   0.611110258810539   0.875000000000000   1.0000000
N2   N   0.890424497994503   0.111878915663923   0.375000000000000   1.0000000
N2   N   0.222213724557206   0.777773528945270   0.875000000000000   1.0000000
N2   N   0.055549774488937   0.277776748021922   0.875000000000000   1.0000000
N2   N   0.388881304213736   0.277769440623050   0.875000000000000   1.0000000
N2   N   0.555547897027794   0.777774545583519   0.875000000000000   1.0000000
N2   N   0.888885295637934   0.777775398499143   0.875000000000000   1.0000000
N2   N   0.722216766524240   0.277776928301148   0.875000000000000   1.0000000
N2   N   0.054786799467761   0.777173652773918   0.375000000000000   1.0000000
N2   N   0.388493150365775   0.778744641880306   0.375000000000000   1.0000000
N2   N   0.223242662932733   0.278287998133035   0.375000000000000   1.0000000
N2   N   0.723769950391345   0.780286318416047   0.375000000000000   1.0000000
N2   N   0.557003665019914   0.271869287110503   0.375000000000000   1.0000000
N2   N   0.890282038265172   0.278011188350418   0.375000000000000   1.0000000
N2   N   0.055548404215650   0.444442066093492   0.875000000000000   1.0000000
N2   N   0.222212716902011   0.944438073300816   0.875000000000000   1.0000000
N2   N   0.555547046164956   0.944440189749142   0.875000000000000   1.0000000
N2   N   0.388881304213736   0.444445196924021   0.875000000000000   1.0000000
N2   N   0.888885562759710   0.944441017310039   0.875000000000000   1.0000000
N2   N   0.055773987968503   0.944260630762331   0.375000000000000   1.0000000
N2   N   0.722218075612816   0.444443851997412   0.875000000000000   1.0000000
N2   N   0.388493150365775   0.943081841818804   0.375000000000000   1.0000000
N2   N   0.221973763049494   0.445655221685580   0.375000000000000   1.0000000
N2   N   0.221567176545113   0.611737522598895   0.375000000000000   1.0000000
N2   N   0.723602007589606   0.945776032951343   0.375000000000000   1.0000000
N2   N   0.889354662171305   0.444245742198043   0.375000000000000   1.0000000
N2   N   0.055548297334173   0.611107290852307   0.875000000000000   1.0000000
N2   N   0.222214235399365   0.111104506128252   0.875000000000000   1.0000000
N2   N   0.722218075612816   0.611107556948740   0.875000000000000   1.0000000
N2   N   0.555547897027794   0.111106684777610   0.875000000000000   1.0000000
N2   N   0.888885534393711   0.111109433863526   0.875000000000000   1.0000000
B2   B   0.111387042606692   0.055243146413144   0.375000000000000   1.0000000
B2   B   0.613323850641937   0.565822818562902   0.375000000000000   1.0000000
B2   B   0.444865326937683   0.053230041211261   0.375000000000000   1.0000000
B2   B   0.943901388626861   0.555310314065218   0.375000000000000   1.0000000
B2   B   0.779509139558615   0.056421236445975   0.375000000000000   1.0000000
B2   B   0.111106923072779   0.722220128203054   0.875000000000000   1.0000000
B2   B   0.444430376810004   0.722205054711896   0.875000000000000   1.0000000
B2   B   0.277790207820835   0.222235327837713   0.875000000000000   1.0000000
B2   B   0.777765625559200   0.722210532505797   0.875000000000000   1.0000000
B2   B   0.611091085544226   0.222225221760683   0.875000000000000   1.0000000
B2   B   0.944452510846373   0.222225718574033   0.875000000000000   1.0000000
B2   B   0.277334811802883   0.722563581827625   0.375000000000000   1.0000000
B2   B   0.112348646664234   0.222840989998781   0.375000000000000   1.0000000
B2   B   0.445854895543068   0.217576801546356   0.375000000000000   1.0000000
B2   B   0.612968182167582   0.727897515688308   0.375000000000000   1.0000000
B2   B   0.943901388626861   0.721924407894977   0.375000000000000   1.0000000
B2   B   0.779549043279897   0.221953379488964   0.375000000000000   1.0000000
B2   B   0.111110130003980   0.888893548771226   0.875000000000000   1.0000000
B2   B   0.444432566136155   0.888882949734741   0.875000000000000   1.0000000
B2   B   0.277790207820835   0.388888213316450   0.875000000000000   1.0000000
B2   B   0.611080101830835   0.388887372483241   0.875000000000000   1.0000000
B2   B   0.777772687786646   0.888882967475038   0.875000000000000   1.0000000
B2   B   0.944446041248386   0.388887983974684   0.875000000000000   1.0000000
B2   B   0.111387042606692   0.389477229526876   0.375000000000000   1.0000000
B2   B   0.277334811802883   0.888104563308586   0.375000000000000   1.0000000
B2   B   0.612480888834500   0.890972828506755   0.375000000000000   1.0000000
B2   B   0.945112439758624   0.889505391466077   0.375000000000000   1.0000000
B2   B   0.778893792882053   0.387900157960293   0.375000000000000   1.0000000
B2   B   0.277775012268139   0.555543608047975   0.875000000000000   1.0000000
B2   B   0.111121040871121   0.055565272186590   0.875000000000000   1.0000000
B2   B   0.611080101830835   0.555526062680924   0.875000000000000   1.0000000
B2   B   0.444430376810004   0.055558655431442   0.875000000000000   1.0000000
B2   B   0.944440679033801   0.555552954685730   0.875000000000000   1.0000000
B2   B   0.110694785923623   0.555814120746910   0.375000000000000   1.0000000
B2   B   0.777776118496761   0.055554725915048   0.875000000000000   1.0000000
B2   B   0.277441102983466   0.053941086920181   0.375000000000000   1.0000000
B2   B   0.445854895543068   0.561611427330046   0.375000000000000   1.0000000
B2   B   0.776764181522511   0.555048757427923   0.375000000000000   1.0000000
B2   B   0.612480888834500   0.054841393661073   0.375000000000000   1.0000000
B2   B   0.444424610837614   0.555526251529717   0.875000000000000   1.0000000
B2   B   0.945972724637001   0.056533015374404   0.375000000000000   1.0000000
B2   B   0.277770078879104   0.722213597521023   0.875000000000000   1.0000000
B2   B   0.111126711695910   0.222230022514620   0.875000000000000   1.0000000
B2   B   0.444424610837614   0.222231692641232   0.875000000000000   1.0000000
B2   B   0.611091085544226   0.722199197116871   0.875000000000000   1.0000000
B2   B   0.944440679033801   0.722221057681407   0.875000000000000   1.0000000
B2   B   0.777772687786646   0.222223053644937   0.875000000000000   1.0000000
B2   B   0.110443594317843   0.721888463825587   0.375000000000000   1.0000000
B2   B   0.444865326937683   0.724968619059758   0.375000000000000   1.0000000
B2   B   0.277338735297106   0.221526096733107   0.375000000000000   1.0000000
B2   B   0.778893792882053   0.724326968255089   0.375000000000000   1.0000000
B2   B   0.612968182167582   0.218403999812602   0.375000000000000   1.0000000
B2   B   0.945972724637001   0.222773042595932   0.375000000000000   1.0000000
B2   B   0.111121040871121   0.388889102017859   0.875000000000000   1.0000000
B2   B   0.277770078879104   0.888889814691409   0.875000000000000   1.0000000
B2   B   0.611098903665933   0.888878625334819   0.875000000000000   1.0000000
B2   B   0.444429182945512   0.388881258139420   0.875000000000000   1.0000000
B2   B   0.944446041248386   0.888891390607030   0.875000000000000   1.0000000
B2   B   0.110694785923623   0.888213998510042   0.375000000000000   1.0000000
B2   B   0.777765625559200   0.388888426386729   0.875000000000000   1.0000000
B2   B   0.444809880311885   0.889071606822607   0.375000000000000   1.0000000
B2   B   0.277338735297106   0.389145971897327   0.375000000000000   1.0000000
B2   B   0.277441102983466   0.556833349396621   0.375000000000000   1.0000000
B2   B   0.613323850641937   0.380834365412364   0.375000000000000   1.0000000
B2   B   0.779549043279897   0.890928997124261   0.375000000000000   1.0000000
B2   B   0.945112439758624   0.388940381625876   0.375000000000000   1.0000000
B2   B   0.111110130003980   0.555549914566084   0.875000000000000   1.0000000
B2   B   0.277775012268139   0.055564737553500   0.875000000000000   1.0000000
B2   B   0.777761523238512   0.555547428285924   0.875000000000000   1.0000000
B2   B   0.611098903665933   0.055553611664442   0.875000000000000   1.0000000
B2   B   0.944452510846373   0.055560125605674   0.875000000000000   1.0000000
B2   B   0.055571771154766   0.111127510255122   0.125003126631760   1.0000000
B2   B   0.555483779186372   0.611056278142196   0.124746394651446   1.0000000
B2   B   0.388903854830097   0.111171313767762   0.125025779928698   1.0000000
B2   B   0.888857729334300   0.611095531333821   0.125013431217285   1.0000000
B2   B   0.722223689599417   0.111103600462611   0.124990587960346   1.0000000
B2   B   0.055564094626643   0.777789656165374   0.625000357432425   1.0000000
B2   B   0.388899263257641   0.777773263240735   0.624998107490100   1.0000000
B2   B   0.222264670131481   0.277799001732408   0.625015962818029   1.0000000
B2   B   0.722194630445545   0.777780553036278   0.625023004001130   1.0000000
B2   B   0.555483779186372   0.277760834377512   0.625253605348555   1.0000000
B2   B   0.888892224748905   0.277769223124517   0.625005659009940   1.0000000
B2   B   0.222238097927026   0.777785715630182   0.124998460678475   1.0000000
B2   B   0.055571771154766   0.277777594232980   0.125003126631760   1.0000000
B2   B   0.388899798430363   0.277881964198201   0.124786922298801   1.0000000
B2   B   0.555546788245794   0.777779746313990   0.124994078628708   1.0000000
B2   B   0.888874484263149   0.777779457424760   0.125004017276033   1.0000000
B2   B   0.722194630445545   0.277747410742603   0.124976995998870   1.0000000
B2   B   0.055570764028778   0.944468646448719   0.625001514834676   1.0000000
B2   B   0.388899263257641   0.944459333350242   0.624998107490100   1.0000000
B2   B   0.222259424247902   0.444412902729706   0.624964408407196   1.0000000
B2   B   0.555328548855818   0.444330941094573   0.625479254161409   1.0000000
B2   B   0.722223689599417   0.944453422470142   0.625009412039654   1.0000000
B2   B   0.888874484263149   0.444428360171726   0.624995982723967   1.0000000
B2   B   0.055570764028778   0.444435450913388   0.124998485165324   1.0000000
B2   B   0.222245342095834   0.944484231454550   0.125003500664053   1.0000000
B2   B   0.555559778181099   0.944446555757214   0.124993180988436   1.0000000
B2   B   0.388899798430363   0.444351167565498   0.124786922298801   1.0000000
B2   B   0.888892224748905   0.944456334957725   0.124994340990059   1.0000000
B2   B   0.722115032574190   0.444388877110636   0.124816351975117   1.0000000
B2   B   0.222245342095834   0.611094443974621   0.624996499335947   1.0000000
B2   B   0.055571771154766   0.111127510255122   0.624996873368241   1.0000000
B2   B   0.555483779186372   0.611056278142196   0.625253605348555   1.0000000
B2   B   0.388903854830097   0.111171313767762   0.624974220071302   1.0000000
B2   B   0.888857729334300   0.611095531333821   0.624986568782715   1.0000000
B2   B   0.055564094626643   0.611107771794605   0.124999642567576   1.0000000
B2   B   0.722223689599417   0.111103600462611   0.625009412039654   1.0000000
B2   B   0.222259424247902   0.111179854851531   0.125035591592805   1.0000000
B2   B   0.388903854830097   0.611065874395677   0.125025779928698   1.0000000
B2   B   0.722115032574190   0.611059488796890   0.124816351975117   1.0000000
B2   B   0.555546788245794   0.111100375265140   0.124994078628708   1.0000000
B2   B   0.388903854830097   0.611065874395677   0.624974220071302   1.0000000
B2   B   0.888897336819646   0.111115335076495   0.124993764990663   1.0000000
B2   B   0.222238097927026   0.777785715630182   0.625001539321524   1.0000000
B2   B   0.055571771154766   0.277777594232980   0.624996873368241   1.0000000
B2   B   0.388899798430363   0.277881964198201   0.625213077701200   1.0000000
B2   B   0.555546788245794   0.777779746313990   0.625005921371292   1.0000000
B2   B   0.888874484263149   0.777779457424760   0.624995982723967   1.0000000
B2   B   0.722194630445545   0.277747410742603   0.625023004001130   1.0000000
B2   B   0.055564094626643   0.777789656165374   0.124999642567576   1.0000000
B2   B   0.388899263257641   0.777773263240735   0.125001892509900   1.0000000
B2   B   0.222264670131481   0.277799001732408   0.124984037181971   1.0000000
B2   B   0.722194630445545   0.777780553036278   0.124976995998870   1.0000000
B2   B   0.555483779186372   0.277760834377512   0.124746394651446   1.0000000
B2   B   0.888892224748905   0.277769223124517   0.124994340990059   1.0000000
B2   B   0.055570764028778   0.444435450913388   0.625001514834676   1.0000000
B2   B   0.222245342095834   0.944484231454550   0.624996499335947   1.0000000
B2   B   0.555559778181099   0.944446555757214   0.625006819011564   1.0000000
B2   B   0.388899798430363   0.444351167565498   0.625213077701200   1.0000000
B2   B   0.888892224748905   0.944456334957725   0.625005659009940   1.0000000
B2   B   0.055570764028778   0.944468646448719   0.124998485165324   1.0000000
B2   B   0.722115032574190   0.444388877110636   0.625183648024883   1.0000000
B2   B   0.388899263257641   0.944459333350242   0.125001892509900   1.0000000
B2   B   0.222259424247902   0.444412902729706   0.125035591592805   1.0000000
B2   B   0.222245342095834   0.611094443974621   0.125003500664053   1.0000000
B2   B   0.555328548855818   0.444330941094573   0.124520745838591   1.0000000
B2   B   0.722223689599417   0.944453422470142   0.124990587960346   1.0000000
B2   B   0.888874484263149   0.444428360171726   0.125004017276033   1.0000000
B2   B   0.055564094626643   0.611107771794605   0.625000357432425   1.0000000
B2   B   0.222259424247902   0.111179854851531   0.624964408407196   1.0000000
B2   B   0.722115032574190   0.611059488796890   0.625183648024883   1.0000000
B2   B   0.555546788245794   0.111100375265140   0.625005921371292   1.0000000
B2   B   0.888897336819646   0.111115335076495   0.625006235009337   1.0000000


