data_1
_audit_creation_method   'vasp2cif'
_cell_length_a    17.52789999999977
_cell_length_b    17.52789999999977
_cell_length_c    15.0
_cell_angle_alpha    90.0
_cell_angle_beta    90.0
_cell_angle_gamma    119.99999999999916

_symmetry_space_group_name_H-M    'P 1'
loop_
_atom_site_label
_atom_site_type_symbol
_atom_site_fract_x
_atom_site_fract_y
_atom_site_fract_z
_atom_site_occupancy
Ga2   Ga   0.410648741550281   0.478859216094408   0.110900754020661   1.0000000
B2   B   0.909025979007442   0.955601423133344   0.110525480360418   1.0000000
B2   B   0.907826183797807   0.098192423248864   0.110562091321411   1.0000000
B2   B   0.906899904993948   0.240525636980394   0.110665115003858   1.0000000
B2   B   0.905305717345299   0.382348723508891   0.110653365175918   1.0000000
B2   B   0.902843690394319   0.523981060282503   0.110637628222902   1.0000000
B2   B   0.905770618291825   0.666625112497319   0.110722596117099   1.0000000
B2   B   0.909101149549427   0.812061506986471   0.110723523880780   1.0000000
B2   B   0.048977386548088   0.950660473151561   0.110540200786085   1.0000000
B2   B   0.048664335521545   0.094167135940958   0.110738680172698   1.0000000
B2   B   0.049968718723064   0.239117087491306   0.110436407753823   1.0000000
B2   B   0.050009959948652   0.381802589207488   0.110383349480766   1.0000000
B2   B   0.048269646741803   0.523584653754550   0.110716377880310   1.0000000
B2   B   0.048544655491942   0.665348389731061   0.110747799013240   1.0000000
B2   B   0.048905191748791   0.807721734429433   0.110458378907583   1.0000000
B2   B   0.190752150274945   0.948021147828546   0.110626270458871   1.0000000
B2   B   0.188406592125105   0.088350517058735   0.111063794414970   1.0000000
B2   B   0.188594146256027   0.232220431248384   0.110575295469025   1.0000000
B2   B   0.194775125536803   0.380924509652946   0.109999762603189   1.0000000
B2   B   0.193085807577123   0.523735843449376   0.110513661744341   1.0000000
B2   B   0.192689865510755   0.665624523120815   0.110987868667394   1.0000000
B2   B   0.191833678173447   0.806975825077865   0.110635530666364   1.0000000
B2   B   0.334600786744609   0.948770554271428   0.110595982933116   1.0000000
B2   B   0.332615886252601   0.087020981637616   0.111242688086697   1.0000000
B2   B   0.327345070449859   0.220601333877849   0.111789231049886   1.0000000
B2   B   0.328827735498494   0.359409666791405   0.110711345540426   1.0000000
B2   B   0.338341132412403   0.532080941238923   0.110242425720861   1.0000000
B2   B   0.337823811960914   0.670039206401709   0.110820943860835   1.0000000
B2   B   0.336062090721958   0.809227108586281   0.110996565911907   1.0000000
B2   B   0.478968298585337   0.951984879804596   0.110745457297315   1.0000000
B2   B   0.477462385535641   0.092758917316184   0.110696750541952   1.0000000
B2   B   0.474759048204619   0.232113498186136   0.111381254755880   1.0000000
B2   B   0.464963747841005   0.364238941302280   0.112143337845779   1.0000000
B2   B   0.483654180037961   0.667395027478471   0.110328918809797   1.0000000
B2   B   0.480762604974094   0.810455724881821   0.111064572954561   1.0000000
B2   B   0.622782023835538   0.956110743377825   0.110727249224457   1.0000000
B2   B   0.621358516602134   0.097515019657168   0.110512035410771   1.0000000
B2   B   0.619531680562017   0.239856667357000   0.110634483371689   1.0000000
B2   B   0.615502999142483   0.383578660715804   0.110749275910215   1.0000000
B2   B   0.614085300378231   0.539918248111176   0.110434363509886   1.0000000
B2   B   0.634165197508995   0.682237882509557   0.111164577363233   1.0000000
B2   B   0.625129221916046   0.816042940609790   0.111153656712752   1.0000000
B2   B   0.766435169727973   0.957358662682602   0.110616177131481   1.0000000
B2   B   0.764808157683290   0.098839552552697   0.110531552722600   1.0000000
B2   B   0.763227659910788   0.240771875075760   0.110613630665963   1.0000000
B2   B   0.760523886260957   0.382930034676685   0.110544071198845   1.0000000
B2   B   0.756059338771418   0.525425520388002   0.110549579494562   1.0000000
B2   B   0.769219866301050   0.673592083697813   0.111247449599834   1.0000000
B2   B   0.770075347162803   0.817500720011429   0.111226307358819   1.0000000
N2   N   0.955259868417081   0.906300113776125   0.110442898789394   1.0000000
N2   N   0.954682679147298   0.049618182323073   0.110581834301904   1.0000000
N2   N   0.954669920310635   0.192902665383487   0.110605541896684   1.0000000
N2   N   0.954022483670096   0.335276568861533   0.110602130539530   1.0000000
N2   N   0.952103428306619   0.477109069820371   0.110663015911559   1.0000000
N2   N   0.953036399342371   0.618857118346488   0.110687603146516   1.0000000
N2   N   0.954313350765692   0.761911784112665   0.110593247889488   1.0000000
N2   N   0.096033366057336   0.902256190088915   0.110401061897673   1.0000000
N2   N   0.094544596485549   0.044352531944712   0.110812773567017   1.0000000
N2   N   0.094528863650425   0.188098763441592   0.110600493751923   1.0000000
N2   N   0.098014295970193   0.334189944685624   0.110115192510012   1.0000000
N2   N   0.096824501286391   0.476784385114494   0.110483046963832   1.0000000
N2   N   0.096744911721378   0.618527618814474   0.110898954397348   1.0000000
N2   N   0.096550096966881   0.760211537479966   0.110541607078128   1.0000000
N2   N   0.239298420599226   0.901533178696842   0.110461891518899   1.0000000
N2   N   0.237487020166385   0.041789093179996   0.111073709902366   1.0000000
N2   N   0.233712950061581   0.180967949372720   0.111134733262414   1.0000000
N2   N   0.235636249115331   0.325764974208337   0.110002259902025   1.0000000
N2   N   0.241351206786904   0.477257701426497   0.110167798624371   1.0000000
N2   N   0.241285504945693   0.619650205895632   0.110902205235686   1.0000000
N2   N   0.240383548401204   0.760783705769579   0.110938777404330   1.0000000
N2   N   0.383644066039805   0.903663400766748   0.110711216463965   1.0000000
N2   N   0.382204139658399   0.042684412178106   0.110692944853422   1.0000000
N2   N   0.379730928896280   0.179692660170818   0.111854442254039   1.0000000
N2   N   0.373109026729456   0.310681116630350   0.112062445831890   1.0000000
N2   N   0.387369736347106   0.626512044582527   0.110232038162100   1.0000000
N2   N   0.385281810477125   0.764503687753750   0.111193257264868   1.0000000
N2   N   0.527736967578694   0.906072893994159   0.110922910782731   1.0000000
N2   N   0.526282050897457   0.047150022412229   0.110534163173503   1.0000000
N2   N   0.524545061130666   0.187688036494965   0.110817549829654   1.0000000
N2   N   0.520615287305819   0.327209622482284   0.111370058570593   1.0000000
N2   N   0.530942192827066   0.540116729954351   0.109334726940933   1.0000000
N2   N   0.542761191138682   0.629401509608820   0.109857552783849   1.0000000
N2   N   0.530237690128035   0.764449472115871   0.110931738513774   1.0000000
N2   N   0.671612282431547   0.910628203235837   0.110783861422527   1.0000000
N2   N   0.669766522504920   0.051103514256805   0.110490461846412   1.0000000
N2   N   0.668095938155791   0.192872020681631   0.110518115611393   1.0000000
N2   N   0.665191321020890   0.335854921566740   0.110552233057852   1.0000000
N2   N   0.658053478217170   0.480271674988087   0.110389801217687   1.0000000
N2   N   0.677829690043584   0.632451754218339   0.111446766495238   1.0000000
N2   N   0.677123273567885   0.774436362920498   0.111640462259951   1.0000000
N2   N   0.815399614390531   0.911214641008245   0.110623018181246   1.0000000
N2   N   0.813003133665636   0.051936305559353   0.110459892322185   1.0000000
N2   N   0.811602925802748   0.193679076234635   0.110642975514142   1.0000000
N2   N   0.809655645124768   0.335742561941813   0.110615642027788   1.0000000
N2   N   0.806340962474377   0.477910095487916   0.110502212387175   1.0000000
N2   N   0.811058979297574   0.620940616277423   0.110786581788134   1.0000000
N2   N   0.815983013792455   0.768166001771599   0.111192465054161   1.0000000


