data_1
_audit_creation_method   'vasp2cif'
_cell_length_a    17.52789999999977
_cell_length_b    17.52789999999977
_cell_length_c    15.0
_cell_angle_alpha    90.0
_cell_angle_beta    90.0
_cell_angle_gamma    119.99999999999916

_symmetry_space_group_name_H-M    'P 1'
loop_
_atom_site_label
_atom_site_type_symbol
_atom_site_fract_x
_atom_site_fract_y
_atom_site_fract_z
_atom_site_occupancy
B2   B   0.903089208916974   0.950280225743605   0.105214958614513   1.0000000
B2   B   0.903914837698040   0.093282170288925   0.108085651471162   1.0000000
B2   B   0.904483482530237   0.236217826446195   0.108093236432408   1.0000000
B2   B   0.904586731793503   0.379168826443373   0.106259718329468   1.0000000
B2   B   0.905186231675031   0.522473987877640   0.102978357992694   1.0000000
B2   B   0.905565658660089   0.665932189568896   0.100710124110168   1.0000000
B2   B   0.904584618220780   0.808996233059134   0.100095605068648   1.0000000
B2   B   0.047493647763464   0.952702945576282   0.103727747893131   1.0000000
B2   B   0.048083481935544   0.095743133204791   0.105308344536865   1.0000000
B2   B   0.048087459902659   0.237767406713659   0.106586368752708   1.0000000
B2   B   0.047664748803665   0.379921007417150   0.106778201581415   1.0000000
B2   B   0.047082996273294   0.522880370993352   0.106073479925563   1.0000000
B2   B   0.047071528188565   0.666387326778084   0.104578848503176   1.0000000
B2   B   0.047411590777027   0.809746087711559   0.103128642955390   1.0000000
B2   B   0.190488519830003   0.953352770635718   0.105903005024585   1.0000000
B2   B   0.191037293731303   0.096573365295221   0.104176756788670   1.0000000
B2   B   0.193714314432866   0.241739042302738   0.105122862489195   1.0000000
B2   B   0.191983236502232   0.381898475506184   0.106745322187204   1.0000000
B2   B   0.189497413101277   0.523681761492324   0.107821974296138   1.0000000
B2   B   0.188247887054267   0.666764441152821   0.108212603832893   1.0000000
B2   B   0.189713437900261   0.810095597207555   0.107588686062675   1.0000000
B2   B   0.333058893336337   0.953105185091891   0.108639701527391   1.0000000
B2   B   0.333999329141935   0.096609695513074   0.108245997259776   1.0000000
B2   B   0.334204346163150   0.239883413663144   0.110402881066388   1.0000000
B2   B   0.342012837303516   0.389843481678516   0.115467881513707   1.0000000
B2   B   0.332977682703825   0.525939438806862   0.110099006954426   1.0000000
B2   B   0.328813457518165   0.667603552179734   0.108491290817815   1.0000000
B2   B   0.331939916606693   0.810137746270716   0.109472955623711   1.0000000
B2   B   0.475512948056211   0.951321199813421   0.109744321179826   1.0000000
B2   B   0.476402999543977   0.094988429634317   0.109297143542335   1.0000000
B2   B   0.477448402623482   0.238597511570996   0.117751330082286   1.0000000
B2   B   0.469071719324306   0.369940233799043   0.160513613143418   1.0000000
B2   B   0.493272128541410   0.582046597538286   0.120608425925390   1.0000000
B2   B   0.467472842125494   0.661534218642877   0.107779516491240   1.0000000
B2   B   0.473946536214595   0.807224698198827   0.109211553074057   1.0000000
B2   B   0.617572950588912   0.948844845531369   0.109970683711763   1.0000000
B2   B   0.618724972772581   0.093230181998452   0.109540016877492   1.0000000
B2   B   0.619429047340055   0.236955754288397   0.112409647843281   1.0000000
B2   B   0.619804572221216   0.380030131850760   0.129134861902179   1.0000000
B2   B   0.637276869417051   0.531358693728410   0.158531154641862   1.0000000
B2   B   0.614872344106383   0.653925901408174   0.121113495691556   1.0000000
B2   B   0.614931419427296   0.802678368118264   0.109949633739189   1.0000000
B2   B   0.759595951853662   0.948404528215715   0.108978506865516   1.0000000
B2   B   0.761030306632772   0.092486265424356   0.109585967819171   1.0000000
B2   B   0.761726498064429   0.235939269295576   0.108826581376998   1.0000000
B2   B   0.761917843795785   0.379052643616820   0.109384592338115   1.0000000
B2   B   0.763945693035967   0.522266121663952   0.110847065203185   1.0000000
B2   B   0.764575132444935   0.665890355851143   0.104183180846006   1.0000000
B2   B   0.757866589752982   0.803964767194143   0.105835068122833   1.0000000
N2   N   0.952145765004097   0.904301657869757   0.102794092708820   1.0000000
N2   N   0.951912828703943   0.046307741467741   0.106492755062597   1.0000000
N2   N   0.952234119479777   0.188876080422922   0.107903561020141   1.0000000
N2   N   0.952206403586826   0.331579199661881   0.107086364435071   1.0000000
N2   N   0.952249034997293   0.474546945958419   0.104733564573820   1.0000000
N2   N   0.952662982703125   0.618034661143151   0.101898124871107   1.0000000
N2   N   0.952595228673047   0.761629656004855   0.099913738846919   1.0000000
N2   N   0.095165406503222   0.905204434643104   0.104278881378489   1.0000000
N2   N   0.095463337065032   0.048075468646042   0.104238310177384   1.0000000
N2   N   0.096850876348445   0.191618096469608   0.105466902661073   1.0000000
N2   N   0.095828388802751   0.332959383343678   0.106381147598231   1.0000000
N2   N   0.094354528344527   0.475185831768829   0.106948190755539   1.0000000
N2   N   0.093676570346114   0.618368056506071   0.106618329651656   1.0000000
N2   N   0.094682855643092   0.761957128969709   0.105413644847825   1.0000000
N2   N   0.237710019750197   0.905424079435215   0.107743865760587   1.0000000
N2   N   0.238373101744937   0.048584066031410   0.105581268319640   1.0000000
N2   N   0.238889362454259   0.191768620981755   0.103759965550791   1.0000000
N2   N   0.243095254258549   0.338097113347564   0.106629836316610   1.0000000
N2   N   0.237458393194239   0.476622613469446   0.108131978812707   1.0000000
N2   N   0.234384009114284   0.618926573048045   0.108524664674866   1.0000000
N2   N   0.236624300513604   0.762253738150164   0.108957477846690   1.0000000
N2   N   0.380206191949392   0.905153892471278   0.109627347380234   1.0000000
N2   N   0.381031088609287   0.048082914160035   0.108495111727331   1.0000000
N2   N   0.381646215984821   0.191302463431339   0.111804980250615   1.0000000
N2   N   0.381312086371698   0.333876391080240   0.121892815073207   1.0000000
N2   N   0.390866096479675   0.489190275589098   0.115703682044065   1.0000000
N2   N   0.373963018865953   0.620357972363182   0.107625976327418   1.0000000
N2   N   0.378637542559830   0.762510354033957   0.109202785897419   1.0000000
N2   N   0.522400044978032   0.902818587945480   0.110066755650420   1.0000000
N2   N   0.523518894829105   0.046504746414138   0.109324444936777   1.0000000
N2   N   0.524302962296783   0.189819921951445   0.111249867081662   1.0000000
N2   N   0.524447948585973   0.331777441032568   0.134828201967997   1.0000000
N2   N   0.519625989762785   0.757646857940842   0.108301902297387   1.0000000
N2   N   0.664062791405955   0.899679903511116   0.109841981229096   1.0000000
N2   N   0.665761777873220   0.044693338175495   0.109831355053184   1.0000000
N2   N   0.666645206395181   0.188510763897842   0.109607559893870   1.0000000
N2   N   0.667095587668331   0.331891009501626   0.115890507426810   1.0000000
N2   N   0.671755407159365   0.475484873744677   0.131738339375248   1.0000000
N2   N   0.673014282972366   0.618336434260455   0.119566103803397   1.0000000
N2   N   0.660955941639273   0.752692055889496   0.111317575077623   1.0000000
N2   N   0.806993138850885   0.900771349299312   0.106684625372768   1.0000000
N2   N   0.808254018562262   0.044495574046103   0.109365717505743   1.0000000
N2   N   0.809132656099646   0.188027300238477   0.108962783482227   1.0000000
N2   N   0.809485983164590   0.331175588314551   0.107432967218250   1.0000000
N2   N   0.810653642584464   0.474230519908284   0.104529422224298   1.0000000
N2   N   0.811715087528811   0.617764845385654   0.102886060795524   1.0000000
N2   N   0.809781845929607   0.760910381715929   0.099374522825587   1.0000000
Al2   Al   0.518052594430535   0.493600250541378   0.217087523860427   1.0000000


