data_1
_audit_creation_method   'vasp2cif'
_cell_length_a    17.52789999999977
_cell_length_b    17.52789999999977
_cell_length_c    15.0
_cell_angle_alpha    90.0
_cell_angle_beta    90.0
_cell_angle_gamma    119.99999999999916

_symmetry_space_group_name_H-M    'P 1'
loop_
_atom_site_label
_atom_site_type_symbol
_atom_site_fract_x
_atom_site_fract_y
_atom_site_fract_z
_atom_site_occupancy
Al2   Al   0.526307209180847   0.622740990112071   0.111008305885769   1.0000000
B2   B   0.907821964373346   0.954905038059961   0.110999546178479   1.0000000
B2   B   0.904593671438156   0.095334115360820   0.111025322743769   1.0000000
B2   B   0.903932008884132   0.237480891541231   0.111035955772296   1.0000000
B2   B   0.904463114552509   0.380211345401917   0.110994039641896   1.0000000
B2   B   0.906796226862873   0.523729785662611   0.111039486388374   1.0000000
B2   B   0.910788565548099   0.668187754395395   0.111033088113671   1.0000000
B2   B   0.910450637752257   0.812972036422954   0.111054740310785   1.0000000
B2   B   0.049463631352603   0.953355824275470   0.111019045868564   1.0000000
B2   B   0.047050681578436   0.094537651322050   0.110984283842445   1.0000000
B2   B   0.045487727778749   0.236758521962195   0.110993884694824   1.0000000
B2   B   0.045219306563204   0.379883033259543   0.111005805510224   1.0000000
B2   B   0.046302278758751   0.523525685794958   0.111018784012361   1.0000000
B2   B   0.048962520720705   0.667388429889396   0.111053736688190   1.0000000
B2   B   0.050057075949965   0.810765961370652   0.111046818401677   1.0000000
B2   B   0.191021660436772   0.952486337252500   0.111011779987348   1.0000000
B2   B   0.189543096696376   0.093622757929848   0.111059557029052   1.0000000
B2   B   0.186060478061398   0.233909015375293   0.111033055088198   1.0000000
B2   B   0.185685219121748   0.378710617033127   0.111039258664532   1.0000000
B2   B   0.185525898650746   0.523236798166555   0.111012574673039   1.0000000
B2   B   0.187888233496478   0.667380123719330   0.111093833765384   1.0000000
B2   B   0.190675023127661   0.810356307709169   0.111015215454433   1.0000000
B2   B   0.333082854874121   0.952633174172343   0.111027402426415   1.0000000
B2   B   0.332761268061645   0.093666497231665   0.111089463934755   1.0000000
B2   B   0.329713786455318   0.233222985654178   0.111046799373423   1.0000000
B2   B   0.323387375221879   0.373151382924848   0.111080515967430   1.0000000
B2   B   0.324119200420207   0.522381074781824   0.111041248142789   1.0000000
B2   B   0.326269604133354   0.667816401786782   0.111020279220255   1.0000000
B2   B   0.331993576702753   0.810990654405220   0.111049106502951   1.0000000
B2   B   0.475841321092062   0.954470398233247   0.111033330166110   1.0000000
B2   B   0.476089237957846   0.093882085673588   0.111046309601721   1.0000000
B2   B   0.475735480248671   0.232252988039903   0.111032801243346   1.0000000
B2   B   0.470139955309472   0.362649535203138   0.111086217858819   1.0000000
B2   B   0.450101268233464   0.507748371874395   0.110791525232466   1.0000000
B2   B   0.463601302514612   0.678453812509577   0.111013800129457   1.0000000
B2   B   0.474955202406035   0.815795376524146   0.110991931450258   1.0000000
B2   B   0.619440764354666   0.953722559800994   0.111015330061141   1.0000000
B2   B   0.619407305618727   0.095240468819521   0.111005844854788   1.0000000
B2   B   0.619878785771554   0.236849041658535   0.110996299361869   1.0000000
B2   B   0.621234070493367   0.379051915230082   0.111034104399349   1.0000000
B2   B   0.638411668519465   0.533164851707154   0.111073217977524   1.0000000
B2   B   0.644783186568646   0.677753789496355   0.111028208199236   1.0000000
B2   B   0.620065995724910   0.811540919519217   0.110996977619887   1.0000000
B2   B   0.763167694895840   0.953888474970622   0.111012396157247   1.0000000
B2   B   0.762087670554023   0.095482206618621   0.111048802452584   1.0000000
B2   B   0.762203815318004   0.237528519317680   0.111019721721018   1.0000000
B2   B   0.763339590979251   0.380013224403011   0.111004886672428   1.0000000
B2   B   0.767784617238319   0.523997431528020   0.111027981365755   1.0000000
B2   B   0.777051800478544   0.672600151108097   0.111027964909832   1.0000000
B2   B   0.769590560256457   0.816049560666347   0.111017884463476   1.0000000
N2   N   0.955768889674788   0.907396722658649   0.111006787849713   1.0000000
N2   N   0.953206670771838   0.048853201526722   0.110974863299407   1.0000000
N2   N   0.951090756887792   0.189900949039685   0.110998697709784   1.0000000
N2   N   0.950832312644932   0.332197906097921   0.110990674026362   1.0000000
N2   N   0.952133145323320   0.475182015761012   0.110994190193381   1.0000000
N2   N   0.955294819858979   0.618966587739638   0.111027865563144   1.0000000
N2   N   0.956288162811366   0.763485687267319   0.111042653589639   1.0000000
N2   N   0.096668306567595   0.905560239848699   0.111000311136679   1.0000000
N2   N   0.095291000294697   0.047515373601189   0.111010779897165   1.0000000
N2   N   0.092227307717648   0.188307834188563   0.110964734602697   1.0000000
N2   N   0.091360135159688   0.331314915155649   0.111001370490102   1.0000000
N2   N   0.091397955498456   0.474783362414997   0.110988894136177   1.0000000
N2   N   0.093830616943433   0.618743649650745   0.111054292763805   1.0000000
N2   N   0.096260650674417   0.762520002618453   0.111021678697252   1.0000000
N2   N   0.238266214085192   0.905237047114810   0.110962301239008   1.0000000
N2   N   0.237923004462133   0.046935637284709   0.111059247664577   1.0000000
N2   N   0.235165317095235   0.187348814014152   0.111035638366899   1.0000000
N2   N   0.229882076111921   0.326971276891811   0.111068356273754   1.0000000
N2   N   0.229761613389781   0.473820629915102   0.111010349838048   1.0000000
N2   N   0.232091835750763   0.618743830231281   0.111035935758343   1.0000000
N2   N   0.236862746899310   0.762698039842319   0.111056101970126   1.0000000
N2   N   0.380565613494968   0.906155890458890   0.111021047578522   1.0000000
N2   N   0.380955478585728   0.047204897639421   0.111050853600387   1.0000000
N2   N   0.380134589910833   0.187769420108952   0.111041559427286   1.0000000
N2   N   0.375483617269809   0.326497248671951   0.111036530062681   1.0000000
N2   N   0.359337439630320   0.464323154780611   0.111022874825764   1.0000000
N2   N   0.369623403186564   0.619461431711451   0.110983606613074   1.0000000
N2   N   0.378440931732378   0.764299263781844   0.111004634088999   1.0000000
N2   N   0.524165539699861   0.909681287664309   0.111010121578765   1.0000000
N2   N   0.524341360299346   0.048495914762929   0.111000453097456   1.0000000
N2   N   0.524584614803998   0.187669956944756   0.110993815807031   1.0000000
N2   N   0.525001474683846   0.325515147032559   0.111037724400166   1.0000000
N2   N   0.523113208485724   0.772076311606436   0.110941553754271   1.0000000
N2   N   0.668070923638938   0.907167185790988   0.110997488780124   1.0000000
N2   N   0.667350991630837   0.048623466381228   0.111011315237319   1.0000000
N2   N   0.667417344714486   0.190022673814398   0.110987773352668   1.0000000
N2   N   0.668387469395990   0.331851143151406   0.110989144071464   1.0000000
N2   N   0.673005955517554   0.474974305342567   0.111029681281813   1.0000000
N2   N   0.686193565041316   0.625647351105773   0.110989336006307   1.0000000
N2   N   0.677273889334490   0.771384234602967   0.110997776691180   1.0000000
N2   N   0.814441398350115   0.909837374716575   0.110994152331257   1.0000000
N2   N   0.810024891387495   0.048680987048491   0.111030535526373   1.0000000
N2   N   0.809383609596045   0.190213140954209   0.111034444746465   1.0000000
N2   N   0.809904258436332   0.332308062971202   0.110986826696596   1.0000000
N2   N   0.812565496694466   0.475099850463307   0.111010555092523   1.0000000
N2   N   0.817981780797203   0.619855350584612   0.111006667888949   1.0000000
N2   N   0.817690080474603   0.767103207980990   0.111035205434823   1.0000000
S2   S   0.522706209587102   0.474205007480779   0.111170126780097   1.0000000


