data_1
_audit_creation_method   'vasp2cif'
_cell_length_a    17.52789999999977
_cell_length_b    17.52789999999977
_cell_length_c    15.0
_cell_angle_alpha    90.0
_cell_angle_beta    90.0
_cell_angle_gamma    119.99999999999916

_symmetry_space_group_name_H-M    'P 1'
loop_
_atom_site_label
_atom_site_type_symbol
_atom_site_fract_x
_atom_site_fract_y
_atom_site_fract_z
_atom_site_occupancy
Al2   Al   0.509655375378669   0.490346026538442   0.999914219478709   1.0000000
B2   B   0.905193484058145   0.952537722849583   0.111530494483212   1.0000000
B2   B   0.904789330260485   0.095212690935475   0.109553844972921   1.0000000
B2   B   0.904656798511584   0.238079738792993   0.108488843893012   1.0000000
B2   B   0.904636735704483   0.380945201749532   0.107886623316975   1.0000000
B2   B   0.904803709158084   0.523781923639429   0.109309102275960   1.0000000
B2   B   0.905234683744591   0.666685500318652   0.112342615806323   1.0000000
B2   B   0.905465635473122   0.809758691794851   0.114372013842827   1.0000000
B2   B   0.047853502974777   0.952148518221231   0.111664308335350   1.0000000
B2   B   0.047464298346340   0.094808537138014   0.111530494483212   1.0000000
B2   B   0.047379446501564   0.237780421793363   0.110158212198114   1.0000000
B2   B   0.047481765560103   0.380759755762487   0.108111421814065   1.0000000
B2   B   0.047755295449976   0.523608324117663   0.107198838835772   1.0000000
B2   B   0.047974819975101   0.666457298688067   0.108347139854040   1.0000000
B2   B   0.048021103994113   0.809345654564103   0.110637510211504   1.0000000
B2   B   0.190656366632043   0.951980917201792   0.110637510211504   1.0000000
B2   B   0.190243329400956   0.094536385722926   0.114372013842827   1.0000000
B2   B   0.189612449445187   0.236942251865466   0.115258903494441   1.0000000
B2   B   0.189947223707380   0.380313239975428   0.113049032839189   1.0000000
B2   B   0.190719092907925   0.523423027064548   0.109001571745142   1.0000000
B2   B   0.190906913049836   0.666297162233028   0.107173966518447   1.0000000
B2   B   0.190816339280821   0.809185681915217   0.107879965304057   1.0000000
B2   B   0.333544722508921   0.952027201220902   0.108347139854040   1.0000000
B2   B   0.333316520878375   0.094767337451431   0.112342615806330   1.0000000
B2   B   0.332601758236460   0.236922444917912   0.118393135385709   1.0000000
B2   B   0.331020678805783   0.378560376100849   0.122905614797317   1.0000000
B2   B   0.333071737987674   0.522990045911396   0.122183942989606   1.0000000
B2   B   0.333882701039243   0.666119320157740   0.112722773978308   1.0000000
B2   B   0.333704858963730   0.809095108146313   0.107173966518447   1.0000000
B2   B   0.476393697079514   0.952246725746019   0.107198838835772   1.0000000
B2   B   0.476220097557502   0.095198312037987   0.109309102275960   1.0000000
B2   B   0.475938740064702   0.238098707925988   0.111440649500290   1.0000000
B2   B   0.473012106776656   0.378197523121289   0.098084882635465   1.0000000
B2   B   0.477011975285584   0.666930283209638   0.122183942989606   1.0000000
B2   B   0.476578994132392   0.809282928288110   0.109001571745142   1.0000000
B2   B   0.619242265433541   0.952520255635901   0.108111421814057   1.0000000
B2   B   0.619056819446413   0.095365285491458   0.107886623316978   1.0000000
B2   B   0.618897017246225   0.238312274238628   0.108496106654325   1.0000000
B2   B   0.618679412632336   0.381322608563691   0.106261560070773   1.0000000
B2   B   0.621804498074683   0.526989914420455   0.098084882635471   1.0000000
B2   B   0.621441645095273   0.668981342391124   0.122905614797317   1.0000000
B2   B   0.619688781220558   0.810054797488535   0.113049032839182   1.0000000
B2   B   0.762221599402508   0.952622574694361   0.110158212198115   1.0000000
B2   B   0.761922282402959   0.095345222684373   0.108488843893012   1.0000000
B2   B   0.761791266227075   0.238210754968871   0.108074405969384   1.0000000
B2   B   0.761689746957301   0.381105003949685   0.108496106654318   1.0000000
B2   B   0.761903313270096   0.524063281132356   0.111440649500292   1.0000000
B2   B   0.763079576278239   0.667400262960427   0.118393135385709   1.0000000
B2   B   0.763059769330534   0.810389571750820   0.115258903494441   1.0000000
N2   N   0.952760590031513   0.904836398277926   0.112265930037867   1.0000000
N2   N   0.952427024679893   0.047574377238212   0.110438546715641   1.0000000
N2   N   0.952241716293612   0.190392557237664   0.109123545737389   1.0000000
N2   N   0.952256106102916   0.333296522137009   0.107902578720521   1.0000000
N2   N   0.952427164188690   0.476141291184739   0.107853556354690   1.0000000
N2   N   0.952704245857259   0.618972549864240   0.109780089223123   1.0000000
N2   N   0.952857123063456   0.761904158193398   0.112711942220898   1.0000000
N2   N   0.095489138570982   0.904512263347055   0.110888475336788   1.0000000
N2   N   0.095165003640216   0.047240811886467   0.112265930037867   1.0000000
N2   N   0.094740662964537   0.189883606958019   0.111848644982206   1.0000000
N2   N   0.094943201242849   0.333008839204889   0.109770930483485   1.0000000
N2   N   0.095428564107053   0.475969533274586   0.107202058445225   1.0000000
N2   N   0.095601472806570   0.618807014614992   0.106981149365744   1.0000000
N2   N   0.095598959250921   0.761666521353933   0.108694347187177   1.0000000
N2   N   0.238334880564171   0.904402442666982   0.108694347187170   1.0000000
N2   N   0.238097243724556   0.047144278854449   0.112711942220898   1.0000000
N2   N   0.237466468077155   0.189580162802259   0.117862939152763   1.0000000
N2   N   0.236717443813060   0.331988017666353   0.116655492078501   1.0000000
N2   N   0.238299772341500   0.475660621438224   0.112453058998165   1.0000000
N2   N   0.238632773114708   0.618640820283289   0.108764081505812   1.0000000
N2   N   0.238472619172465   0.761528782745546   0.106932640972904   1.0000000
N2   N   0.381194387302993   0.904399929111493   0.106981149365744   1.0000000
N2   N   0.381028852053646   0.047297156060574   0.109780089223123   1.0000000
N2   N   0.380733718034848   0.189973809148782   0.114294355518337   1.0000000
N2   N   0.379763701302820   0.332144337960450   0.119706425804463   1.0000000
N2   N   0.378206011364274   0.473065443302374   0.133091582083304   1.0000000
N2   N   0.381524821331663   0.618476580586298   0.121650200884242   1.0000000
N2   N   0.381360581634711   0.761368628803415   0.108764081505813   1.0000000
N2   N   0.524031868642075   0.904572837810870   0.107202058445217   1.0000000
N2   N   0.523860110732201   0.047574237729352   0.107853556354690   1.0000000
N2   N   0.523689938221840   0.190597509266522   0.110053864021318   1.0000000
N2   N   0.523291829719065   0.333758522821564   0.107114940936613   1.0000000
N2   N   0.526935958614753   0.621795390553861   0.133091582083304   1.0000000
N2   N   0.524340780478660   0.761701629576590   0.112453058998165   1.0000000
N2   N   0.666992562712337   0.905058200675101   0.109770930483485   1.0000000
N2   N   0.666704879779963   0.047745295814956   0.107902578720521   1.0000000
N2   N   0.666543997552660   0.190662538796987   0.108052761696266   1.0000000
N2   N   0.666320369776348   0.333681032140784   0.107848482419793   1.0000000
N2   N   0.666242879095487   0.476709572197910   0.107114940936613   1.0000000
N2   N   0.667857063956618   0.620237700615229   0.119706425804470   1.0000000
N2   N   0.668013384250681   0.763283958105068   0.116655492078516   1.0000000
N2   N   0.810117794959891   0.905260738953385   0.111848644982206   1.0000000
N2   N   0.809608844680383   0.047759685624246   0.109123545737389   1.0000000
N2   N   0.809429758516526   0.190571643401362   0.108372791506040   1.0000000
N2   N   0.809338863121068   0.333457404364219   0.108052761696266   1.0000000
N2   N   0.809403892651594   0.476311463695232   0.110053864021325   1.0000000
N2   N   0.810027592769174   0.619267683883171   0.114294355518339   1.0000000
N2   N   0.810421239115708   0.762534933840792   0.117862939152763   1.0000000
P2   P   0.480391728462759   0.519610292734169   0.184647988763934   1.0000000


