data_1
_audit_creation_method   'vasp2cif'
_cell_length_a    17.52789999999977
_cell_length_b    17.52789999999977
_cell_length_c    15.0
_cell_angle_alpha    90.0
_cell_angle_beta    90.0
_cell_angle_gamma    119.99999999999916

_symmetry_space_group_name_H-M    'P 1'
loop_
_atom_site_label
_atom_site_type_symbol
_atom_site_fract_x
_atom_site_fract_y
_atom_site_fract_z
_atom_site_occupancy
Al2   Al   0.455823846582267   0.483076077215523   0.110883112986109   1.0000000
B2   B   0.907026397254765   0.954188267157665   0.111090011280167   1.0000000
B2   B   0.904286451700638   0.094862581291615   0.111094113281423   1.0000000
B2   B   0.903574752559772   0.237158264819370   0.111090112538683   1.0000000
B2   B   0.904495792461689   0.380418257418386   0.111057036780513   1.0000000
B2   B   0.907203821226823   0.524344430715871   0.111097579754115   1.0000000
B2   B   0.909222004597316   0.668429434473810   0.111137868163884   1.0000000
B2   B   0.908149117457822   0.811639912227484   0.111156201411726   1.0000000
B2   B   0.049348757075748   0.954105853944440   0.111064604840280   1.0000000
B2   B   0.046845435978369   0.094640132797825   0.111010143011158   1.0000000
B2   B   0.044893377461350   0.236635616728213   0.110964621085825   1.0000000
B2   B   0.044289650948644   0.380134266838711   0.111001179753600   1.0000000
B2   B   0.045712225437063   0.524344430715871   0.111097579754115   1.0000000
B2   B   0.048465397926772   0.668360891461532   0.111144525449315   1.0000000
B2   B   0.049540352756215   0.811619855292049   0.111133961182990   1.0000000
B2   B   0.191436687871513   0.954303471351019   0.111021477808402   1.0000000
B2   B   0.191396860322906   0.096659620009243   0.110977512604548   1.0000000
B2   B   0.185758684188590   0.234490630531270   0.110889908392092   1.0000000
B2   B   0.183726590929903   0.379192176751821   0.110889765601941   1.0000000
B2   B   0.183555461858041   0.524038014886910   0.111003798159888   1.0000000
B2   B   0.187779045824492   0.668429434473810   0.111137868163884   1.0000000
B2   B   0.190649406927836   0.811619855292049   0.111133961182990   1.0000000
B2   B   0.333327001261698   0.954105853944440   0.111064604840280   1.0000000
B2   B   0.333834375635343   0.096659620009243   0.110977512604548   1.0000000
B2   B   0.334356489716670   0.240141363483337   0.110933113808703   1.0000000
B2   B   0.320013973787864   0.375002869682824   0.110874846976639   1.0000000
B2   B   0.320201569847029   0.523484291993049   0.110799558226642   1.0000000
B2   B   0.326351219522859   0.668292637214017   0.111006688115182   1.0000000
B2   B   0.332062410718645   0.811639912227484   0.111156201411726   1.0000000
B2   B   0.475733485851887   0.954188267157665   0.111090011280167   1.0000000
B2   B   0.476366312768461   0.094640132797826   0.111010143011158   1.0000000
B2   B   0.477303562291682   0.234490630531270   0.110889908392092   1.0000000
B2   B   0.483560511844954   0.375002869682824   0.110874846976639   1.0000000
B2   B   0.463404712963191   0.676436905830307   0.111537188369116   1.0000000
B2   B   0.475105109799011   0.814548809060081   0.111015164831968   1.0000000
B2   B   0.618982000443507   0.953317095276722   0.111052270582545   1.0000000
B2   B   0.619149457095974   0.094862581291615   0.111094113281423   1.0000000
B2   B   0.620313855215870   0.236635616728213   0.110964621085825   1.0000000
B2   B   0.624037201770924   0.379192176751821   0.110889765601941   1.0000000
B2   B   0.631854338095036   0.523484291993049   0.110799558226642   1.0000000
B2   B   0.641603808816115   0.676436905830307   0.111537188369116   1.0000000
B2   B   0.620200876609237   0.811830137269461   0.111051547488617   1.0000000
B2   B   0.762906710782231   0.953317095276722   0.111052270582545   1.0000000
B2   B   0.761738174261725   0.094903021018446   0.111141030300152   1.0000000
B2   B   0.762156839764585   0.237158264819370   0.111090112538683   1.0000000
B2   B   0.764416231839064   0.380134266838711   0.111001179753600   1.0000000
B2   B   0.769054168976866   0.524038014886910   0.111003798159888   1.0000000
B2   B   0.770513033640170   0.668292637214017   0.111006688115182   1.0000000
B2   B   0.768015315210057   0.814548809060081   0.111015164831968   1.0000000
N2   N   0.954789187130589   0.906732194073285   0.111102096259849   1.0000000
N2   N   0.952707224161097   0.048262394568466   0.111064589080328   1.0000000
N2   N   0.950623060961890   0.189452172302723   0.111043057731157   1.0000000
N2   N   0.950320105433142   0.331989417186405   0.111031107869157   1.0000000
N2   N   0.952068959951233   0.475563500102444   0.111071058951610   1.0000000
N2   N   0.954628548073331   0.619744647658112   0.111127478381348   1.0000000
N2   N   0.955289695517308   0.763704155204137   0.111151274633096   1.0000000
N2   N   0.096771184647803   0.906675739703734   0.111050686089598   1.0000000
N2   N   0.096284900920074   0.048969664360707   0.110986102488089   1.0000000
N2   N   0.091993546324728   0.188462702522233   0.110902198684819   1.0000000
N2   N   0.090141512558863   0.331344209400480   0.110912360419171   1.0000000
N2   N   0.090175388295890   0.475251821253451   0.111017734382507   1.0000000
N2   N   0.093688807827793   0.619744647658112   0.111127478381348   1.0000000
N2   N   0.096086590143769   0.763602183600546   0.111121133918661   1.0000000
N2   N   0.238475551742940   0.906675739703734   0.111050686089598   1.0000000
N2   N   0.238936778732087   0.049300849221169   0.110958133915610   1.0000000
N2   N   0.238543928675771   0.191809172643146   0.110891950180703   1.0000000
N2   N   0.227942090916965   0.327337269515760   0.110837015989777   1.0000000
N2   N   0.227028052316578   0.474435298081133   0.110866242274859   1.0000000
N2   N   0.232312715345917   0.619597741805870   0.111023188049733   1.0000000
N2   N   0.236987167929832   0.763704155204137   0.111151274633096   1.0000000
N2   N   0.380515715185695   0.906732194073285   0.111102096259849   1.0000000
N2   N   0.381257471683634   0.048969664360707   0.110986102488089   1.0000000
N2   N   0.381837952210377   0.191809172643147   0.110891950180703   1.0000000
N2   N   0.382894100866068   0.337215493489139   0.110876219485343   1.0000000
N2   N   0.354443377649810   0.466201143890719   0.110696380286991   1.0000000
N2   N   0.369906573354669   0.619022481465763   0.110944042866262   1.0000000
N2   N   0.378639437771839   0.764236110733319   0.111082403494483   1.0000000
N2   N   0.523826803517857   0.908415927240314   0.111014000956921   1.0000000
N2   N   0.524129590206360   0.048262394568466   0.111064589080328   1.0000000
N2   N   0.525041864440502   0.188462702522233   0.110902198684819   1.0000000
N2   N   0.527967886841793   0.327337269515760   0.110837015989777   1.0000000
N2   N   0.540330474483903   0.466201143890719   0.110696380286991   1.0000000
N2   N   0.523351692685077   0.769846600590244   0.111078305829498   1.0000000
N2   N   0.667503482951325   0.906434257660666   0.110990687648483   1.0000000
N2   N   0.666905085726951   0.047884055221643   0.111104699353817   1.0000000
N2   N   0.667403531139816   0.189452172302723   0.111043057731157   1.0000000
N2   N   0.669775405084623   0.331344209400480   0.110912360419171   1.0000000
N2   N   0.675979954007553   0.474435298081133   0.110866242274859   1.0000000
N2   N   0.677688616353085   0.619022481465763   0.110944042866262   1.0000000
N2   N   0.675067616147166   0.769846600590244   0.111078305829498   1.0000000
N2   N   0.813161831965447   0.908415927240314   0.111014000956921   1.0000000
N2   N   0.809553389293686   0.047884055221643   0.111104699353817   1.0000000
N2   N   0.809076010550431   0.189577601300864   0.111129531328627   1.0000000
N2   N   0.810243731553258   0.331989417186405   0.111031107869157   1.0000000
N2   N   0.813649141201551   0.475251821253451   0.111017734382507   1.0000000
N2   N   0.815857734702960   0.619597741805870   0.111023188049733   1.0000000
N2   N   0.814169381204473   0.764236110733319   0.111082403494483   1.0000000
Se2   Se   0.524368148026268   0.620163587810516   0.110953363196706   1.0000000


