data_1
_audit_creation_method   'vasp2cif'
_cell_length_a    17.52789999999977
_cell_length_b    17.52789999999977
_cell_length_c    15.0
_cell_angle_alpha    90.0
_cell_angle_beta    90.0
_cell_angle_gamma    119.99999999999916

_symmetry_space_group_name_H-M    'P 1'
loop_
_atom_site_label
_atom_site_type_symbol
_atom_site_fract_x
_atom_site_fract_y
_atom_site_fract_z
_atom_site_occupancy
B2   B   0.903103142144730   0.949999812881038   0.099473625967761   1.0000000
B2   B   0.903941269797394   0.093008259364169   0.102875337085213   1.0000000
B2   B   0.904579582816980   0.235990715556205   0.108061772399781   1.0000000
B2   B   0.904862852068213   0.379109693189019   0.111911655225705   1.0000000
B2   B   0.905816624996468   0.522634246360897   0.109787714122632   1.0000000
B2   B   0.906121770655853   0.666084743277626   0.103056513995923   1.0000000
B2   B   0.904908470920064   0.808874461233182   0.098423193667712   1.0000000
B2   B   0.047734145806041   0.952809918044438   0.103659924844415   1.0000000
B2   B   0.048276047710380   0.095742002109096   0.100593586205148   1.0000000
B2   B   0.048238634917518   0.237735958638635   0.104835300111872   1.0000000
B2   B   0.047663539853649   0.379904466025306   0.113282572240804   1.0000000
B2   B   0.046980989334604   0.522962002630363   0.120665727577178   1.0000000
B2   B   0.046963161772015   0.666579594158932   0.120061188617634   1.0000000
B2   B   0.047502966022083   0.809913630437202   0.111839903836030   1.0000000
B2   B   0.190443860973190   0.953555445512515   0.113794808924029   1.0000000
B2   B   0.191445708756579   0.096943060132203   0.103581542427955   1.0000000
B2   B   0.194049697707114   0.241958264948150   0.101373404514837   1.0000000
B2   B   0.191785109683176   0.382106586477552   0.107143327527014   1.0000000
B2   B   0.188973455596615   0.523990761478159   0.116611529480214   1.0000000
B2   B   0.187993572270183   0.667051373786879   0.125370924136241   1.0000000
B2   B   0.189481199875570   0.810422477429766   0.123856610945067   1.0000000
B2   B   0.332855350711270   0.953289988038841   0.119107077301014   1.0000000
B2   B   0.333887489398792   0.096621926678466   0.110933756404270   1.0000000
B2   B   0.335262099308869   0.240778931044760   0.104259498027249   1.0000000
B2   B   0.341920480131668   0.390353672444799   0.106734664108928   1.0000000
B2   B   0.331392794864177   0.526706573350452   0.104703138788663   1.0000000
B2   B   0.328052337066677   0.668223308606164   0.112094175130521   1.0000000
B2   B   0.331561138261362   0.810450168676507   0.121412710609569   1.0000000
B2   B   0.475197915445271   0.951202389820559   0.114140704269835   1.0000000
B2   B   0.476194766350221   0.094696297186157   0.111939067220389   1.0000000
B2   B   0.477283260645415   0.238306279984183   0.114314302571162   1.0000000
B2   B   0.473655559100330   0.376841805003496   0.140189303826355   1.0000000
B2   B   0.484444492896722   0.573657358058432   0.114498632779569   1.0000000
B2   B   0.466211776177228   0.661996633411674   0.101847329741259   1.0000000
B2   B   0.473233822036988   0.807255858812438   0.110080965339112   1.0000000
B2   B   0.617252044112433   0.948478613039252   0.107519393083808   1.0000000
B2   B   0.618539899187522   0.092779115641334   0.108482395446075   1.0000000
B2   B   0.619392435126218   0.236366973883823   0.109483966762202   1.0000000
B2   B   0.620550542183030   0.379733367001033   0.118886770848337   1.0000000
B2   B   0.633921880375236   0.528079701497520   0.137555491146415   1.0000000
B2   B   0.616076217500233   0.653788894960038   0.112055932373759   1.0000000
B2   B   0.614421246865960   0.802380104275476   0.105684984618379   1.0000000
B2   B   0.759423641991831   0.947922307421990   0.103214738522303   1.0000000
B2   B   0.760963970028191   0.092076396992263   0.105954086459561   1.0000000
B2   B   0.761831374085627   0.235643281974024   0.107815551620520   1.0000000
B2   B   0.762589858461627   0.379002957900025   0.107058174350721   1.0000000
B2   B   0.764901152023135   0.522228277070275   0.101982972098781   1.0000000
B2   B   0.764856757569322   0.665425280985047   0.094045200264476   1.0000000
B2   B   0.757765274809758   0.803371563281241   0.099674436814426   1.0000000
N2   N   0.952164596243932   0.904048254826529   0.099754936336320   1.0000000
N2   N   0.951961965024244   0.046068934835527   0.100247746275509   1.0000000
N2   N   0.952425680698585   0.188720024473992   0.105260810344502   1.0000000
N2   N   0.952386566178758   0.331423637821212   0.111771185576720   1.0000000
N2   N   0.952411576832854   0.474530195659050   0.115406766801393   1.0000000
N2   N   0.952777869324976   0.618197628668426   0.111306301617444   1.0000000
N2   N   0.952693273888582   0.761582434691116   0.103576160246303   1.0000000
N2   N   0.095184562742014   0.905348462610060   0.110082917298114   1.0000000
N2   N   0.095907020883010   0.048373329520798   0.101878191727771   1.0000000
N2   N   0.097413484530713   0.191964166022231   0.101355031850278   1.0000000
N2   N   0.096150553594876   0.333143965651014   0.108524230780640   1.0000000
N2   N   0.094325350675318   0.475168088580350   0.118939080243677   1.0000000
N2   N   0.093477423804672   0.618420185150676   0.125314060929938   1.0000000
N2   N   0.094420338869524   0.762149054465057   0.120864292824501   1.0000000
N2   N   0.237578804622623   0.905765993347784   0.120905480244818   1.0000000
N2   N   0.238531033011271   0.048949356815421   0.109171540380389   1.0000000
N2   N   0.239986867254928   0.192801676060201   0.100641684612869   1.0000000
N2   N   0.243938983276400   0.339078013982447   0.103271696717247   1.0000000
N2   N   0.237246554335636   0.477025996855786   0.109679444248271   1.0000000
N2   N   0.234337257411861   0.619133294215966   0.120434310855623   1.0000000
N2   N   0.236491844910213   0.762494383380495   0.126358997537514   1.0000000
N2   N   0.380087482958548   0.905301986366777   0.119942430061076   1.0000000
N2   N   0.380939589997335   0.048306556836189   0.114569728386086   1.0000000
N2   N   0.381966670524555   0.191969733421132   0.109343890985209   1.0000000
N2   N   0.383997275724571   0.336895142535789   0.108882811925545   1.0000000
N2   N   0.391339557032922   0.490825939291109   0.106280791620557   1.0000000
N2   N   0.373317560411270   0.620884006481912   0.101099166259388   1.0000000
N2   N   0.378278939639965   0.762584480810340   0.115182221119851   1.0000000
N2   N   0.522051980603322   0.902422942024855   0.110787548140860   1.0000000
N2   N   0.523324597668346   0.046284110188370   0.111300137286586   1.0000000
N2   N   0.524201935439176   0.189776742930756   0.110555752261364   1.0000000
N2   N   0.524812901860825   0.332930879998900   0.126089571098017   1.0000000
N2   N   0.518853960778994   0.756832463181986   0.105142377993683   1.0000000
N2   N   0.663537862916412   0.898756127056108   0.105398871677184   1.0000000
N2   N   0.665538964372908   0.044149133134144   0.107043545543973   1.0000000
N2   N   0.666557234522757   0.188132439655351   0.107728919854057   1.0000000
N2   N   0.667225305807425   0.331564126681291   0.109948607254235   1.0000000
N2   N   0.671247723527318   0.474808209510369   0.114607677693605   1.0000000
N2   N   0.670823411769291   0.616290005451063   0.101785774838421   1.0000000
N2   N   0.659504062070009   0.751018551783976   0.105706667027063   1.0000000
N2   N   0.806458326684749   0.899854630453051   0.100270053717747   1.0000000
N2   N   0.808073262258628   0.043914414928439   0.103940296736569   1.0000000
N2   N   0.809135318883679   0.187663967613650   0.107247198431354   1.0000000
N2   N   0.809732008172581   0.331005197504388   0.108451710059457   1.0000000
N2   N   0.811407513885493   0.474266812020436   0.103462703550909   1.0000000
N2   N   0.811972698349633   0.617731061844496   0.096076067559595   1.0000000
N2   N   0.809404058709438   0.760108691319374   0.094082777629122   1.0000000
Sn2   Sn   0.526166174042512   0.497334644815777   0.233342403135173   1.0000000


