data_1
_audit_creation_method   'vasp2cif'
_cell_length_a    17.52789999999977
_cell_length_b    17.52789999999977
_cell_length_c    15.0
_cell_angle_alpha    90.0
_cell_angle_beta    90.0
_cell_angle_gamma    119.99999999999916

_symmetry_space_group_name_H-M    'P 1'
loop_
_atom_site_label
_atom_site_type_symbol
_atom_site_fract_x
_atom_site_fract_y
_atom_site_fract_z
_atom_site_occupancy
B2   B   0.905333673554918   0.952809719482744   0.109173472328112   1.0000000
B2   B   0.904723726487752   0.095278020204210   0.110422305350748   1.0000000
B2   B   0.904559608962341   0.238105367611806   0.110949452660572   1.0000000
B2   B   0.904855385506678   0.381100640036719   0.110386577142352   1.0000000
B2   B   0.905571815096449   0.524119486849875   0.109622961768749   1.0000000
B2   B   0.905870867839368   0.667285943498835   0.109384049703293   1.0000000
B2   B   0.905613472967832   0.810003614106161   0.109257528931848   1.0000000
B2   B   0.047764963582513   0.952236759782492   0.110581095949900   1.0000000
B2   B   0.047191995859261   0.094668046917082   0.109173471855110   1.0000000
B2   B   0.046894495615687   0.237598747010318   0.107953673615588   1.0000000
B2   B   0.046973077635219   0.380922924572655   0.107871025695630   1.0000000
B2   B   0.047480495995338   0.524049057067388   0.109098725364736   1.0000000
B2   B   0.048047988772650   0.666950811023279   0.110706850118303   1.0000000
B2   B   0.048044528382366   0.809671897012038   0.111345294279007   1.0000000
B2   B   0.190329852680993   0.951957234710645   0.111345292753010   1.0000000
B2   B   0.189998086929853   0.094388239740198   0.109257524807851   1.0000000
B2   B   0.188764144734564   0.236205776822284   0.106203309873229   1.0000000
B2   B   0.188815067573941   0.380343275861399   0.106003087154339   1.0000000
B2   B   0.189227496744380   0.523974621823762   0.106326619912190   1.0000000
B2   B   0.190396644933118   0.666896851215887   0.109336477840100   1.0000000
B2   B   0.190497521756212   0.809504172784789   0.111339747051467   1.0000000
B2   B   0.333050924681740   0.951953735061358   0.110706852532301   1.0000000
B2   B   0.332715770478178   0.094130872080632   0.109384045326293   1.0000000
B2   B   0.332359853461909   0.236800596103027   0.109329629051464   1.0000000
B2   B   0.329061906450973   0.377585004397266   0.117191733998091   1.0000000
B2   B   0.329669882654002   0.523084719304026   0.118121722638489   1.0000000
B2   B   0.333028469356410   0.666973233417561   0.110739267001924   1.0000000
B2   B   0.333104802104067   0.809604983909877   0.109336481373103   1.0000000
B2   B   0.475952630351607   0.952521084934646   0.109098730675737   1.0000000
B2   B   0.475882254656100   0.094430007579562   0.109622970461749   1.0000000
B2   B   0.475622226524496   0.235934033557169   0.106807203456258   1.0000000
B2   B   0.475038604244675   0.376385351618867   0.113244085576860   1.0000000
B2   B   0.476917065128939   0.670331974686015   0.118121723152497   1.0000000
B2   B   0.476027093966241   0.810774190323637   0.106326625649190   1.0000000
B2   B   0.619078814399364   0.953028606781789   0.107871027802631   1.0000000
B2   B   0.618901030311308   0.095146301775338   0.110386578228352   1.0000000
B2   B   0.618848726821538   0.237284873990169   0.108246368454001   1.0000000
B2   B   0.619746608973868   0.380255125235141   0.105384513448221   1.0000000
B2   B   0.623616217351129   0.524963062958331   0.113244080318858   1.0000000
B2   B   0.622416645057765   0.670939817265021   0.117191733711088   1.0000000
B2   B   0.619658467298613   0.811186701829065   0.106003082806336   1.0000000
B2   B   0.762402993517698   0.953107223911312   0.107953675841584   1.0000000
B2   B   0.761896328149188   0.095442067571673   0.110949455063570   1.0000000
B2   B   0.761929148700934   0.238072556479058   0.111009376907429   1.0000000
B2   B   0.762716948393828   0.381153028609456   0.108246360047001   1.0000000
B2   B   0.764067718618842   0.524379456282549   0.106807195492260   1.0000000
B2   B   0.763201062667994   0.667641827083104   0.109329637679464   1.0000000
B2   B   0.763795894601743   0.811237571947442   0.106203312347226   1.0000000
Ge2   Ge   0.475732176860704   0.524269478686250   0.190252186933417   1.0000000
N2   N   0.952627998890441   0.904874810787683   0.109815631634558   1.0000000
N2   N   0.952351297813979   0.047650419496030   0.110109212295868   1.0000000
N2   N   0.952068365891113   0.190403698352113   0.110326205334035   1.0000000
N2   N   0.952051882103300   0.333314814194930   0.110188238406875   1.0000000
N2   N   0.952395190281536   0.476262125101450   0.110054121240211   1.0000000
N2   N   0.952681927723884   0.619242882039130   0.110122745940768   1.0000000
N2   N   0.952778523722691   0.762087571228306   0.110244572092007   1.0000000
N2   N   0.095313000309724   0.904688752158301   0.111545886444952   1.0000000
N2   N   0.095126894650339   0.047373719924570   0.109815638131548   1.0000000
N2   N   0.094341632948762   0.189691912531561   0.107211794079430   1.0000000
N2   N   0.094352311825841   0.332935169593229   0.106490544359392   1.0000000
N2   N   0.094527973483951   0.476131540152076   0.107201672661521   1.0000000
N2   N   0.095279120747594   0.619162491355670   0.109785621047628   1.0000000
N2   N   0.095371525557799   0.761961200071505   0.111557286718672   1.0000000
N2   N   0.238040512089497   0.904630185200215   0.111557287610674   1.0000000
N2   N   0.237914158148702   0.047223245241317   0.110244564669010   1.0000000
N2   N   0.237599971558004   0.189798405080536   0.107906676484148   1.0000000
N2   N   0.235812504750604   0.331352619791249   0.105974211144924   1.0000000
N2   N   0.236114736088457   0.475808689339344   0.105895264921305   1.0000000
N2   N   0.237992304436178   0.619134824431926   0.108281839666491   1.0000000
N2   N   0.238059843213925   0.761941790981072   0.110354266393617   1.0000000
N2   N   0.380839179747328   0.904722505035391   0.109785625197632   1.0000000
N2   N   0.380758845147844   0.047319823196131   0.110122753688768   1.0000000
N2   N   0.380691206913959   0.189949707852589   0.108101013300415   1.0000000
N2   N   0.380381641749143   0.332638097982913   0.114086480545246   1.0000000
N2   N   0.370362321303943   0.470339968668737   0.133352798837983   1.0000000
N2   N   0.381002712324478   0.618999085634550   0.117871721370264   1.0000000
N2   N   0.380866914057065   0.762009402443836   0.108281844287491   1.0000000
N2   N   0.523870192075914   0.905473622032055   0.107201686439520   1.0000000
N2   N   0.523739533247545   0.047606471478485   0.110054121685217   1.0000000
N2   N   0.523721280136334   0.189712859106123   0.108084876279626   1.0000000
N2   N   0.523749673183447   0.331507476245440   0.105039354094884   1.0000000
N2   N   0.529117334357776   0.470884262267262   0.128672486665621   1.0000000
N2   N   0.529661690614288   0.629639360835065   0.133352800415986   1.0000000
N2   N   0.524193093273644   0.763887120239542   0.105895262105303   1.0000000
N2   N   0.667066621018828   0.905649435647131   0.106490542146392   1.0000000
N2   N   0.666686855536042   0.047949772145680   0.110188236938879   1.0000000
N2   N   0.666568765400082   0.190493658915900   0.110386497616524   1.0000000
N2   N   0.666755134894386   0.333246675654630   0.106585372557288   1.0000000
N2   N   0.668494187886554   0.476252042826571   0.105039333695891   1.0000000
N2   N   0.667363532661130   0.619620052795863   0.114086483180244   1.0000000
N2   N   0.668649046662753   0.764189252717398   0.105974204013925   1.0000000
N2   N   0.810309799984444   0.905660082085262   0.107211794455435   1.0000000
N2   N   0.809598026924869   0.047933343181887   0.110326215021035   1.0000000
N2   N   0.809387041389999   0.190614613301982   0.111757950172483   1.0000000
N2   N   0.809508079192098   0.333432919760901   0.110386491676529   1.0000000
N2   N   0.810289032448904   0.476280474313673   0.108084855768624   1.0000000
N2   N   0.810052013514433   0.619310497133013   0.108101028653418   1.0000000
N2   N   0.810203257013447   0.762401720226004   0.107906687780143   1.0000000


