data_1
_audit_creation_method   'vasp2cif'
_cell_length_a    17.52789999999977
_cell_length_b    17.52789999999977
_cell_length_c    15.0
_cell_angle_alpha    90.0
_cell_angle_beta    90.0
_cell_angle_gamma    119.99999999999916

_symmetry_space_group_name_H-M    'P 1'
loop_
_atom_site_label
_atom_site_type_symbol
_atom_site_fract_x
_atom_site_fract_y
_atom_site_fract_z
_atom_site_occupancy
B2   B   0.905003006531508   0.952597786726020   0.110967510013665   1.0000000
B2   B   0.904737927445591   0.095235199282852   0.111025138260122   1.0000000
B2   B   0.904624573324542   0.238005145354328   0.111036651493433   1.0000000
B2   B   0.904313840626807   0.380687575973056   0.111012225033654   1.0000000
B2   B   0.904214917880032   0.523266869142502   0.111014086128342   1.0000000
B2   B   0.905370927576139   0.666403923615128   0.111078858425194   1.0000000
B2   B   0.905894326595269   0.810234723033695   0.111043371319369   1.0000000
B2   B   0.048074253029339   0.952818701031694   0.110982700078455   1.0000000
B2   B   0.047823597742196   0.095476128253713   0.110981536564167   1.0000000
B2   B   0.047684664719267   0.238081333722980   0.110979687548437   1.0000000
B2   B   0.047519614916763   0.380676644906667   0.111018897050365   1.0000000
B2   B   0.047321831293288   0.523409120099738   0.111039407580876   1.0000000
B2   B   0.047561791485272   0.666392854610124   0.111036620929279   1.0000000
B2   B   0.047871720262728   0.809605344906282   0.110985169498375   1.0000000
B2   B   0.190524727630248   0.952397650235289   0.110992404741389   1.0000000
B2   B   0.190699605280089   0.095415045108704   0.111035395267738   1.0000000
B2   B   0.190770354057988   0.238253049583217   0.111046709871565   1.0000000
B2   B   0.190790304460072   0.380780742500150   0.111048491297214   1.0000000
B2   B   0.190253695805850   0.523460457817471   0.111086855332901   1.0000000
B2   B   0.190002359460262   0.666472914759735   0.111078191382628   1.0000000
B2   B   0.190439835960761   0.809489352555418   0.110991163248018   1.0000000
B2   B   0.333436481610014   0.952479318817195   0.111015086411551   1.0000000
B2   B   0.333277172852806   0.094995987465595   0.111070645533204   1.0000000
B2   B   0.333433177742572   0.237287138226626   0.111102266896408   1.0000000
B2   B   0.334347483381032   0.380809167208739   0.111082631677754   1.0000000
B2   B   0.333310277689981   0.524237896692756   0.111064261904229   1.0000000
B2   B   0.332265509848436   0.666581661804954   0.111102840445561   1.0000000
B2   B   0.333277946082808   0.809567231233296   0.111078386805447   1.0000000
B2   B   0.476338928487966   0.952737449226375   0.111009353283175   1.0000000
B2   B   0.476408616138335   0.096219332074604   0.110995682092110   1.0000000
B2   B   0.475806663089537   0.239285933665907   0.111075684170739   1.0000000
B2   B   0.474219631132866   0.665394267994913   0.110810900553184   1.0000000
B2   B   0.476255824278005   0.809366710734775   0.111042422152220   1.0000000
B2   B   0.619069628808113   0.952194899049116   0.110993305936482   1.0000000
B2   B   0.619112580674040   0.095666359761790   0.110998086141254   1.0000000
B2   B   0.619215866786908   0.239423636939473   0.111034876802433   1.0000000
B2   B   0.620502116450644   0.386409403075847   0.111019693320054   1.0000000
B2   B   0.620110849804030   0.664357706858965   0.110889651356812   1.0000000
B2   B   0.618771897022275   0.808369115051876   0.110946150900090   1.0000000
B2   B   0.761821328312481   0.952102983665361   0.110950442023874   1.0000000
B2   B   0.761834649151132   0.095227611511580   0.111015629407728   1.0000000
B2   B   0.761709725837573   0.238280691227326   0.111046597004460   1.0000000
B2   B   0.761082667054302   0.381208675726048   0.111035360193966   1.0000000
B2   B   0.759043633399876   0.522421196168729   0.111028672323814   1.0000000
B2   B   0.765495594488338   0.666965052424652   0.111092238538840   1.0000000
B2   B   0.762268048092440   0.809317821876460   0.111002533822511   1.0000000
C2   C   0.475216318088767   0.380319986443464   0.111252604780941   1.0000000
C2   C   0.474189597935663   0.521793508000323   0.111074928035554   1.0000000
C2   C   0.513617833162658   0.468807393541444   0.111416520345983   1.0000000
C2   C   0.520400376739891   0.612903303345597   0.110592703057489   1.0000000
N2   N   0.953406486101210   0.905800464451826   0.110968832636314   1.0000000
N2   N   0.952774664972508   0.048078374261016   0.110979777046307   1.0000000
N2   N   0.952515291307184   0.190518367784966   0.111022604136349   1.0000000
N2   N   0.952382371832988   0.333075121154316   0.111028712591154   1.0000000
N2   N   0.952517397956069   0.475768626758713   0.110973916497973   1.0000000
N2   N   0.953255557142615   0.618872702358786   0.111028780495176   1.0000000
N2   N   0.953513555550901   0.762478535551736   0.111031909693615   1.0000000
N2   N   0.095676521072748   0.905154810175459   0.110969139721696   1.0000000
N2   N   0.095721134502855   0.048174461954435   0.110965931899313   1.0000000
N2   N   0.095584276131436   0.190749313807390   0.110965071987853   1.0000000
N2   N   0.095489247753311   0.333178591428635   0.110941629147335   1.0000000
N2   N   0.095158493521259   0.475775537725761   0.111029031255168   1.0000000
N2   N   0.095205028533984   0.618753525723491   0.111073036769674   1.0000000
N2   N   0.095596024311971   0.761980897080904   0.110955554419662   1.0000000
N2   N   0.238229286458427   0.904884835701145   0.110977019700133   1.0000000
N2   N   0.238108100342142   0.047665879677862   0.111021089783401   1.0000000
N2   N   0.238343706801826   0.190715380694799   0.111055984817649   1.0000000
N2   N   0.238883372307089   0.333342616984205   0.111096336310245   1.0000000
N2   N   0.237939541921682   0.475684669623808   0.111083409474188   1.0000000
N2   N   0.237226691810266   0.618683186743455   0.111048899151880   1.0000000
N2   N   0.238005516853933   0.761875645784011   0.111036913628272   1.0000000
N2   N   0.380946505327253   0.904912272758292   0.111030546063107   1.0000000
N2   N   0.380956704019341   0.047674105665678   0.111007694585413   1.0000000
N2   N   0.380450286820141   0.189852099792364   0.111093043542925   1.0000000
N2   N   0.381785950339924   0.332339563296490   0.111054508715763   1.0000000
N2   N   0.380914504674572   0.475741484690256   0.111037209919043   1.0000000
N2   N   0.378787785572628   0.618680502115574   0.111019708572068   1.0000000
N2   N   0.380540726271194   0.761933802013070   0.111067343973999   1.0000000
N2   N   0.523713661770687   0.904985572558869   0.111012748855648   1.0000000
N2   N   0.523740383034329   0.048085044958226   0.110968183257570   1.0000000
N2   N   0.523470626531395   0.191378354123827   0.110986609421851   1.0000000
N2   N   0.521050834499279   0.334175593287154   0.111065345566041   1.0000000
N2   N   0.523091947269237   0.761664970954728   0.110915023896086   1.0000000
N2   N   0.666565401247155   0.904564183713696   0.110943530051020   1.0000000
N2   N   0.666597937520719   0.047689064364598   0.110987591873531   1.0000000
N2   N   0.666449484538035   0.190654619920787   0.111025441436330   1.0000000
N2   N   0.665705565811525   0.333474920848474   0.111027284124792   1.0000000
N2   N   0.667314866174305   0.477137133981392   0.110956814162022   1.0000000
N2   N   0.674639511508537   0.628066275739733   0.111107408520494   1.0000000
N2   N   0.667333357126926   0.762160524509877   0.110987936335846   1.0000000
N2   N   0.810074859922555   0.905305076267637   0.110932064428534   1.0000000
N2   N   0.809571657763312   0.047699455335136   0.110982499399166   1.0000000
N2   N   0.809483311389173   0.190413652872788   0.111012385101413   1.0000000
N2   N   0.809265577731726   0.333062326889192   0.111023641859608   1.0000000
N2   N   0.809960571875715   0.475867144015658   0.111011269728215   1.0000000
N2   N   0.812032927563916   0.619233323391299   0.111048877988276   1.0000000
N2   N   0.811856827392541   0.763677272600985   0.111059680248858   1.0000000


