data_1
_audit_creation_method   'vasp2cif'
_cell_length_a    17.52789999999977
_cell_length_b    17.52789999999977
_cell_length_c    15.0
_cell_angle_alpha    90.0
_cell_angle_beta    90.0
_cell_angle_gamma    119.99999999999916

_symmetry_space_group_name_H-M    'P 1'
loop_
_atom_site_label
_atom_site_type_symbol
_atom_site_fract_x
_atom_site_fract_y
_atom_site_fract_z
_atom_site_occupancy
B2   B   0.905055013934976   0.952629151136716   0.111055252363029   1.0000000
B2   B   0.905026069468531   0.094975951727457   0.111060938035586   1.0000000
B2   B   0.905071520231052   0.237541095888579   0.111053046834881   1.0000000
B2   B   0.905648918534431   0.380566491576297   0.111018052962370   1.0000000
B2   B   0.906827704796571   0.523917179459239   0.111066333991144   1.0000000
B2   B   0.904893954106607   0.666974495489513   0.111122667745404   1.0000000
B2   B   0.904033535976664   0.809146556157559   0.111096492859428   1.0000000
B2   B   0.047362763694844   0.952639257501173   0.111014726188933   1.0000000
B2   B   0.047372870059273   0.094947007261055   0.111055252363029   1.0000000
B2   B   0.047003105855382   0.237507536954597   0.111100131252475   1.0000000
B2   B   0.046628345439689   0.380898502059011   0.111056390772417   1.0000000
B2   B   0.046635379286811   0.524476951746918   0.111042428356614   1.0000000
B2   B   0.047015509502418   0.667566387394012   0.111051207903126   1.0000000
B2   B   0.047048628979254   0.810108588830101   0.111025889573204   1.0000000
B2   B   0.189893432365939   0.952953392216775   0.111025889573204   1.0000000
B2   B   0.190855465038454   0.095968485219339   0.111096492859428   1.0000000
B2   B   0.189025751133260   0.237136144337822   0.111177471295233   1.0000000
B2   B   0.187655298765015   0.380675268459842   0.111143802123968   1.0000000
B2   B   0.185958833241067   0.524977870201725   0.111100247453708   1.0000000
B2   B   0.188683714015976   0.668245931000607   0.111088954323527   1.0000000
B2   B   0.189389212746098   0.810612808449917   0.111032314981024   1.0000000
B2   B   0.332435633803026   0.952986511693547   0.111051207903126   1.0000000
B2   B   0.333027525707432   0.095108067089408   0.111122667745404   1.0000000
B2   B   0.334886155601845   0.239209713795412   0.111109454412965   1.0000000
B2   B   0.328938326959111   0.378249365688584   0.110709296403460   1.0000000
B2   B   0.323762426166619   0.527086444723366   0.110898514204732   1.0000000
B2   B   0.330360538555241   0.669641482641736   0.111093135474171   1.0000000
B2   B   0.331756090196370   0.811318307180020   0.111088954323527   1.0000000
B2   B   0.475525069450095   0.953366641909187   0.111042428356614   1.0000000
B2   B   0.476084841737704   0.093174316399415   0.111066333991144   1.0000000
B2   B   0.477023841949922   0.232219898776289   0.110962957125925   1.0000000
B2   B   0.480529256910623   0.371179321392500   0.111021242345663   1.0000000
B2   B   0.472915576473619   0.676239595030418   0.110898514204732   1.0000000
B2   B   0.475024150995289   0.814043187954923   0.111100247453708   1.0000000
B2   B   0.619103519136964   0.953373675756278   0.111056390772417   1.0000000
B2   B   0.619435529619651   0.094353102661517   0.111018052962370   1.0000000
B2   B   0.620408882100827   0.235369871678919   0.110972859528384   1.0000000
B2   B   0.623084071838597   0.376917949357454   0.110867063994445   1.0000000
B2   B   0.628822699803527   0.519472764286412   0.111021242345663   1.0000000
B2   B   0.621752655507383   0.671063694237921   0.110709296403460   1.0000000
B2   B   0.619326752736157   0.812346722431022   0.111143802123968   1.0000000
B2   B   0.762494484241441   0.952998915340584   0.111100131252475   1.0000000
B2   B   0.762460925307440   0.094930500964924   0.111053046834881   1.0000000
B2   B   0.763010707334924   0.236991313861141   0.111002992623312   1.0000000
B2   B   0.764632149517096   0.379593139095153   0.110972859528384   1.0000000
B2   B   0.767782122419719   0.522978179247103   0.110962957125925   1.0000000
B2   B   0.760792307400612   0.665115865595143   0.111109454412965   1.0000000
B2   B   0.762865876858170   0.810976270062685   0.111177471295233   1.0000000
N2   N   0.951988199653524   0.904520008040762   0.111032495883414   1.0000000
N2   N   0.952514740339466   0.047486661578557   0.111024531075585   1.0000000
N2   N   0.952357761348772   0.189946922125283   0.111050229997898   1.0000000
N2   N   0.952307509521842   0.332616331863836   0.111012182242873   1.0000000
N2   N   0.952756012652493   0.475815720686179   0.111023791567129   1.0000000
N2   N   0.952297964016186   0.619298302637739   0.111080678081712   1.0000000
N2   N   0.951879172361859   0.762043303383034   0.111078343502492   1.0000000
N2   N   0.094790414215071   0.905210987702926   0.110984554402325   1.0000000
N2   N   0.095481393877221   0.048013202264472   0.111032495883414   1.0000000
N2   N   0.094479697969845   0.189829617858352   0.111111729948222   1.0000000
N2   N   0.093634904098996   0.332741488470728   0.111104140277389   1.0000000
N2   N   0.092407784602001   0.476203341938787   0.111035551338831   1.0000000
N2   N   0.094032132565100   0.619835272849336   0.111038548391644   1.0000000
N2   N   0.094436039525496   0.762670126851631   0.111004146721315   1.0000000
N2   N   0.237331275066396   0.905565362392492   0.111004146721315   1.0000000
N2   N   0.237958098534952   0.048122229556145   0.111078343502492   1.0000000
N2   N   0.239221213941876   0.191749313506789   0.111126197874539   1.0000000
N2   N   0.234837322593800   0.331697778726066   0.111113942739992   1.0000000
N2   N   0.230930599219278   0.476489421079570   0.111117311825510   1.0000000
N2   N   0.235592195852530   0.620528551629155   0.111088728266224   1.0000000
N2   N   0.236758346201513   0.763243055716497   0.111057042634797   1.0000000
N2   N   0.380166129068621   0.905969269352843   0.111038548391644   1.0000000
N2   N   0.380703099280264   0.047703437901820   0.111080678081712   1.0000000
N2   N   0.381543551962983   0.190269415625908   0.111105996100414   1.0000000
N2   N   0.384718605618596   0.336843482778865   0.110942522824866   1.0000000
N2   N   0.362021816698564   0.473104809273225   0.110386852492763   1.0000000
N2   N   0.377847767353966   0.622153634564032   0.110973344283051   1.0000000
N2   N   0.379472850288849   0.764409206065463   0.111088728266224   1.0000000
N2   N   0.523798059978177   0.907593617315990   0.111035551338831   1.0000000
N2   N   0.524185681230810   0.047245389265541   0.111023791567129   1.0000000
N2   N   0.525101480877473   0.186820221186835   0.110982449621508   1.0000000
N2   N   0.526913029656947   0.324702359215974   0.110842506027565   1.0000000
N2   N   0.526896592643767   0.637979585219416   0.110386852492763   1.0000000
N2   N   0.523511980837424   0.769070802698737   0.111117311825510   1.0000000
N2   N   0.667259913446218   0.906366497819040   0.111104140277389   1.0000000
N2   N   0.667385070053168   0.047693892396133   0.111012182242873   1.0000000
N2   N   0.668021250854535   0.188914862151774   0.110981106094752   1.0000000
N2   N   0.669707374339637   0.330294027577326   0.110913482413836   1.0000000
N2   N   0.675299042700995   0.473088372260029   0.110842506027565   1.0000000
N2   N   0.663157919138087   0.615282796299378   0.110942522824866   1.0000000
N2   N   0.668303623190928   0.765164079324184   0.111113942739992   1.0000000
N2   N   0.810171784059665   0.905521703948194   0.111111729948222   1.0000000
N2   N   0.810054479792698   0.047643640569174   0.111050229997898   1.0000000
N2   N   0.810283190315378   0.189718211602613   0.111028066264620   1.0000000
N2   N   0.811086539766169   0.331980151062449   0.110981106094752   1.0000000
N2   N   0.813181180731166   0.474899921039543   0.110982449621508   1.0000000
N2   N   0.809731986292148   0.618457849955056   0.111105996100414   1.0000000
N2   N   0.808252088411166   0.760780187976160   0.111126197874539   1.0000000
O2   O   0.542822182076269   0.457179219840719   0.111024372734461   1.0000000
Se2   Se   0.475165671968281   0.524836349228715   0.110619143588470   1.0000000


