data_1
_audit_creation_method   'vasp2cif'
_cell_length_a    14.93631414619966
_cell_length_b    14.936314146199727
_cell_length_c    13.341276283792837
_cell_angle_alpha    90.0
_cell_angle_beta    90.0
_cell_angle_gamma    119.99999999999984

_symmetry_space_group_name_H-M    'P 1'
loop_
_atom_site_label
_atom_site_type_symbol
_atom_site_fract_x
_atom_site_fract_y
_atom_site_fract_z
_atom_site_occupancy
O2   O   0.566186768766293   0.449760051049807   0.375000000000000   1.0000000
N2   N   0.110895519760227   0.055456367066380   0.124497274941793   1.0000000
N2   N   0.610888845095654   0.555432530340924   0.126027279145006   1.0000000
N2   N   0.444268108681886   0.055462250503355   0.124480841689222   1.0000000
N2   N   0.944244073484196   0.555453662123746   0.124228062607537   1.0000000
N2   N   0.777567682339128   0.055450507836253   0.123994445278732   1.0000000
N2   N   0.110927773207733   0.722130553270855   0.625870844974203   1.0000000
N2   N   0.444268108681886   0.722139191511549   0.625519158310970   1.0000000
N2   N   0.277553280425778   0.222114050922319   0.624308013172107   1.0000000
N2   N   0.777562782624247   0.722116098748211   0.625464098707381   1.0000000
N2   N   0.610911038720350   0.222112538905892   0.625239053102205   1.0000000
N2   N   0.944221965266341   0.222107417778756   0.625884145050964   1.0000000
N2   N   0.277605756826248   0.722131375002303   0.124213286187442   1.0000000
N2   N   0.110883720725436   0.222108527029397   0.124705253391543   1.0000000
N2   N   0.444258249092252   0.222113601768832   0.125719762433043   1.0000000
N2   N   0.610911038720350   0.722131833147253   0.124760946897525   1.0000000
N2   N   0.944244073484203   0.722123744693540   0.124228062607537   1.0000000
N2   N   0.777569847803375   0.222114520760300   0.124134247963438   1.0000000
N2   N   0.110919611587877   0.888801307470257   0.625762942639624   1.0000000
N2   N   0.444277505651439   0.888805419491781   0.625893039137356   1.0000000
N2   N   0.277553280425778   0.388772562837108   0.624308013172107   1.0000000
N2   N   0.610888845095654   0.388789648087836   0.623972720854958   1.0000000
N2   N   0.777569847803375   0.888788660376277   0.625865752036464   1.0000000
N2   N   0.944234554557366   0.388778432822665   0.625857286818517   1.0000000
N2   N   0.110895519760227   0.388772486027360   0.124497274941793   1.0000000
N2   N   0.277605756826248   0.888807715157802   0.124213286187442   1.0000000
N2   N   0.610923287685170   0.888799926910525   0.124116081284586   1.0000000
N2   N   0.444255860878772   0.388794597106227   0.125645693547724   1.0000000
N2   N   0.944234554557366   0.888789455068527   0.124142713181427   1.0000000
N2   N   0.777562782624247   0.388780017209026   0.124535901292445   1.0000000
N2   N   0.277588138236573   0.555454062883075   0.625168777044548   1.0000000
N2   N   0.110895519760227   0.055456367066380   0.625502725058291   1.0000000
N2   N   0.610888845095654   0.555432530340924   0.623972720854958   1.0000000
N2   N   0.444268108681886   0.055462250503355   0.625519158310970   1.0000000
N2   N   0.944244073484196   0.555453662123746   0.625771937392101   1.0000000
N2   N   0.110919611587877   0.555451637450146   0.124237057359603   1.0000000
N2   N   0.777567682339128   0.055450507836253   0.626005554721157   1.0000000
N2   N   0.277588138236573   0.055467408686194   0.124831222955438   1.0000000
N2   N   0.444258249092344   0.555477980656884   0.125719762433078   1.0000000
N2   N   0.777561039951719   0.555447186642223   0.124822523675010   1.0000000
N2   N   0.610923287685170   0.055456694108401   0.124116081284579   1.0000000
N2   N   0.444258249092344   0.555477980656884   0.624280237567469   1.0000000
N2   N   0.944221965266341   0.055447880820848   0.124115854949067   1.0000000
N2   N   0.277605756826248   0.722131375002303   0.625786713812215   1.0000000
N2   N   0.110883720725436   0.222108527029397   0.625294746608165   1.0000000
N2   N   0.444258249092252   0.222113601768832   0.624280237567469   1.0000000
N2   N   0.610911038720350   0.722131833147253   0.625239053102205   1.0000000
N2   N   0.944244073484196   0.722123744693540   0.625771937392101   1.0000000
N2   N   0.777569847803375   0.222114520760300   0.625865752036464   1.0000000
N2   N   0.110927773207733   0.722130553270855   0.124129155025696   1.0000000
N2   N   0.444268108681886   0.722139191511151   0.124480841689222   1.0000000
N2   N   0.277553280425778   0.222114050922319   0.125691986827787   1.0000000
N2   N   0.777562782624247   0.722116098748211   0.124535901292445   1.0000000
N2   N   0.610911038720350   0.222112538905892   0.124760946897525   1.0000000
N2   N   0.944221965266341   0.222107417778756   0.124115854949067   1.0000000
N2   N   0.110895519760227   0.388772486027360   0.625502725058291   1.0000000
N2   N   0.277605756826248   0.888807715157809   0.625786713812215   1.0000000
N2   N   0.610923287685170   0.888799926910525   0.625883918715306   1.0000000
N2   N   0.444255860878772   0.388794597106227   0.624354306452162   1.0000000
N2   N   0.944234554557366   0.888789455068527   0.625857286818517   1.0000000
N2   N   0.110919611587877   0.888801307470257   0.124237057359603   1.0000000
N2   N   0.777562782624247   0.388780017209026   0.625464098707388   1.0000000
N2   N   0.444277505651439   0.888805419491781   0.124106960862628   1.0000000
N2   N   0.277553280425778   0.388772562837108   0.125691986827787   1.0000000
N2   N   0.277588138236573   0.555454062883075   0.124831222955438   1.0000000
N2   N   0.610888845095654   0.388789648087836   0.126027279145014   1.0000000
N2   N   0.777569847803375   0.888788660376277   0.124134247963438   1.0000000
N2   N   0.944234554557366   0.388778432822665   0.124142713181427   1.0000000
N2   N   0.110919611587877   0.555451637450146   0.625762942639624   1.0000000
N2   N   0.277588138236573   0.055467408686194   0.625168777044548   1.0000000
N2   N   0.777561039951719   0.555447186642223   0.625177476324577   1.0000000
N2   N   0.610923287685170   0.055456694108401   0.625883918715306   1.0000000
N2   N   0.944221965266341   0.055447880820848   0.625884145050964   1.0000000
N2   N   0.054957709321246   0.110711300065057   0.375000000000000   1.0000000
N2   N   0.555696254703386   0.609854831407147   0.375000000000000   1.0000000
N2   N   0.388807700387145   0.109223036190994   0.375000000000000   1.0000000
N2   N   0.889619948429248   0.611476640881221   0.375000000000000   1.0000000
N2   N   0.722148005739691   0.111120100867341   0.375000000000000   1.0000000
N2   N   0.055933242098039   0.777966144132432   0.875000000000000   1.0000000
N2   N   0.389267092423936   0.777966361577674   0.875000000000000   1.0000000
N2   N   0.222596584142817   0.277964958738017   0.875000000000000   1.0000000
N2   N   0.722600876379831   0.777962415861243   0.875000000000000   1.0000000
N2   N   0.555933338603064   0.277974401846334   0.875000000000000   1.0000000
N2   N   0.889268705885049   0.277972784016701   0.875000000000000   1.0000000
N2   N   0.222100526065855   0.777716929699610   0.375000000000000   1.0000000
N2   N   0.054957709321239   0.277579742589290   0.375000000000000   1.0000000
N2   N   0.386560769304117   0.272899621601820   0.375000000000000   1.0000000
N2   N   0.555731156873821   0.777538837299721   0.375000000000000   1.0000000
N2   N   0.889197508017413   0.777895502907918   0.375000000000000   1.0000000
N2   N   0.722291776049328   0.277962155164411   0.375000000000000   1.0000000
N2   N   0.055932216861571   0.944628581923208   0.875000000000000   1.0000000
N2   N   0.389267092423936   0.944634064178981   0.875000000000000   1.0000000
N2   N   0.222596058648396   0.444634313681597   0.875000000000000   1.0000000
N2   N   0.555938049295008   0.444635691314172   0.875000000000000   1.0000000
N2   N   0.722599297496095   0.944630657568115   0.875000000000000   1.0000000
N2   N   0.889270483136072   0.444638196370867   0.875000000000000   1.0000000
N2   N   0.054876500119252   0.444557941348340   0.375000000000000   1.0000000
N2   N   0.221889939231130   0.943819075348833   0.375000000000000   1.0000000
N2   N   0.555663116724952   0.944498225029267   0.375000000000000   1.0000000
N2   N   0.386560769304110   0.446994481035569   0.375000000000000   1.0000000
N2   N   0.888617249292101   0.944230014957328   0.375000000000000   1.0000000
N2   N   0.723775107364135   0.444989746941117   0.375000000000000   1.0000000
N2   N   0.222598233670076   0.611301737995145   0.875000000000000   1.0000000
N2   N   0.055928841305442   0.111294937424792   0.875000000000000   1.0000000
N2   N   0.555933338603064   0.611292270090454   0.875000000000000   1.0000000
N2   N   0.389264798991405   0.111302159492800   0.875000000000000   1.0000000
N2   N   0.889270590904238   0.611301962119030   0.875000000000000   1.0000000
N2   N   0.055613970866452   0.611265687575454   0.375000000000000   1.0000000
N2   N   0.722599297496095   0.111301973261992   0.875000000000000   1.0000000
N2   N   0.220335075327873   0.109142368970099   0.375000000000000   1.0000000
N2   N   0.388807700387145   0.612917997529090   0.375000000000000   1.0000000
N2   N   0.723775107364135   0.612118693756092   0.375000000000000   1.0000000
N2   N   0.555731156873821   0.111525652907124   0.375000000000000   1.0000000
N2   N   0.389264798991405   0.611295972831834   0.875000000000000   1.0000000
N2   N   0.888550352793708   0.110941843063510   0.375000000000000   1.0000000
N2   N   0.222599407071051   0.777966370201846   0.875000000000000   1.0000000
N2   N   0.055928841305442   0.277967237214029   0.875000000000000   1.0000000
N2   N   0.389265232619357   0.277967000792194   0.875000000000000   1.0000000
N2   N   0.555931749995085   0.777961822020755   0.875000000000000   1.0000000
N2   N   0.889270483136072   0.777965620099024   0.875000000000000   1.0000000
N2   N   0.722600876379831   0.277971793851661   0.875000000000000   1.0000000
N2   N   0.055613970866452   0.777681616623892   0.375000000000000   1.0000000
N2   N   0.388837018859567   0.778270202464315   0.375000000000000   1.0000000
N2   N   0.221686320105319   0.277509826719006   0.375000000000000   1.0000000
N2   N   0.722291776049328   0.777662954218323   0.375000000000000   1.0000000
N2   N   0.555696254703386   0.279174756630038   0.375000000000000   1.0000000
N2   N   0.888617249292101   0.277720567667802   0.375000000000000   1.0000000
N2   N   0.055932216861571   0.444636968271963   0.875000000000000   1.0000000
N2   N   0.222598233670076   0.944629829008024   0.875000000000000   1.0000000
N2   N   0.555931926320591   0.944632629827187   0.875000000000000   1.0000000
N2   N   0.389265232619357   0.444631565160698   0.875000000000000   1.0000000
N2   N   0.889268705885049   0.944629255202585   0.875000000000000   1.0000000
N2   N   0.054876500119252   0.943651892104774   0.375000000000000   1.0000000
N2   N   0.722601800884955   0.444636899241021   0.875000000000000   1.0000000
N2   N   0.388837018859567   0.943900149728060   0.375000000000000   1.0000000
N2   N   0.220335075327873   0.444526039690471   0.375000000000000   1.0000000
N2   N   0.221889939231130   0.611404197215243   0.375000000000000   1.0000000
N2   N   0.722148005739691   0.944361238205430   0.375000000000000   1.0000000
N2   N   0.889197508017413   0.444635338443099   0.375000000000000   1.0000000
N2   N   0.055933242098053   0.611300431298780   0.875000000000000   1.0000000
N2   N   0.222596058648396   0.111295078299844   0.875000000000000   1.0000000
N2   N   0.722601800884955   0.611298234976567   0.875000000000000   1.0000000
N2   N   0.555931749995085   0.111303261308046   0.875000000000000   1.0000000
N2   N   0.889265665505325   0.111299499419022   0.875000000000000   1.0000000
B2   B   0.110552455329892   0.054898998011479   0.375000000000000   1.0000000
B2   B   0.612225981343737   0.554535403860030   0.375000000000000   1.0000000
B2   B   0.444296724004567   0.055019950594702   0.375000000000000   1.0000000
B2   B   0.944748396100705   0.555676931132624   0.375000000000000   1.0000000
B2   B   0.777603176680933   0.055468255007186   0.375000000000000   1.0000000
B2   B   0.111495354350709   0.722414343842336   0.875000000000000   1.0000000
B2   B   0.444802265522891   0.722360562124467   0.875000000000000   1.0000000
B2   B   0.278193221046858   0.222451958568906   0.875000000000000   1.0000000
B2   B   0.778134270862929   0.722384111910138   0.875000000000000   1.0000000
B2   B   0.611452448268378   0.222435231211784   0.875000000000000   1.0000000
B2   B   0.944856118204996   0.222428994798020   0.875000000000000   1.0000000
B2   B   0.277732507414274   0.722280603256412   0.375000000000000   1.0000000
B2   B   0.111565132652637   0.222449232993053   0.375000000000000   1.0000000
B2   B   0.442365748416583   0.221731764431725   0.375000000000000   1.0000000
B2   B   0.610700770549325   0.720680654937219   0.375000000000000   1.0000000
B2   B   0.944748396100705   0.722404798301977   0.375000000000000   1.0000000
B2   B   0.777556947267480   0.222282389686158   0.375000000000000   1.0000000
B2   B   0.111505919249081   0.889100548338819   0.875000000000000   1.0000000
B2   B   0.444809080564989   0.889071206949309   0.875000000000000   1.0000000
B2   B   0.278193221046858   0.389074595811167   0.875000000000000   1.0000000
B2   B   0.611436337835923   0.389077842378069   0.875000000000000   1.0000000
B2   B   0.778153201579410   0.889060124876096   0.875000000000000   1.0000000
B2   B   0.944839724291512   0.389088487095434   0.875000000000000   1.0000000
B2   B   0.110552455329892   0.388986790652025   0.375000000000000   1.0000000
B2   B   0.277732507414274   0.888785237490889   0.375000000000000   1.0000000
B2   B   0.610992860309940   0.888500593542959   0.375000000000000   1.0000000
B2   B   0.944310150727346   0.888754561221033   0.375000000000000   1.0000000
B2   B   0.778266793405741   0.389003209257421   0.375000000000000   1.0000000
B2   B   0.278167188700099   0.555713099123958   0.875000000000000   1.0000000
B2   B   0.111530504420673   0.055781161330616   0.875000000000000   1.0000000
B2   B   0.611436337835930   0.555691828791281   0.875000000000000   1.0000000
B2   B   0.444802265522891   0.055775036732258   0.875000000000000   1.0000000
B2   B   0.944820058377935   0.555744002202362   0.875000000000000   1.0000000
B2   B   0.111036055964828   0.555598288082121   0.375000000000000   1.0000000
B2   B   0.778160669258249   0.055747001295706   0.875000000000000   1.0000000
B2   B   0.277555989565437   0.055353749624134   0.375000000000000   1.0000000
B2   B   0.442365748416583   0.553967317318349   0.375000000000000   1.0000000
B2   B   0.778674376715003   0.556003855024598   0.375000000000000   1.0000000
B2   B   0.610992860309940   0.055825600100353   0.375000000000000   1.0000000
B2   B   0.444791741032374   0.555674209490334   0.875000000000000   1.0000000
B2   B   0.944347831742970   0.055498134328160   0.375000000000000   1.0000000
B2   B   0.278158225067725   0.722397083306240   0.875000000000000   1.0000000
B2   B   0.111548197876393   0.222440765604862   0.875000000000000   1.0000000
B2   B   0.444791741032374   0.222450864875241   0.875000000000000   1.0000000
B2   B   0.611452448268378   0.722350550390173   0.875000000000000   1.0000000
B2   B   0.944820058377935   0.722409389508677   0.875000000000000   1.0000000
B2   B   0.778153201579339   0.222426410036688   0.875000000000000   1.0000000
B2   B   0.111178626322590   0.722255979828167   0.375000000000000   1.0000000
B2   B   0.444296724004567   0.722610106742718   0.375000000000000   1.0000000
B2   B   0.279056301692090   0.222070005588624   0.375000000000000   1.0000000
B2   B   0.778266793405741   0.722596917481083   0.375000000000000   1.0000000
B2   B   0.610700770549325   0.223353448945240   0.375000000000000   1.0000000
B2   B   0.944347831742970   0.222183030747960   0.375000000000000   1.0000000
B2   B   0.111530504420673   0.389082676423395   0.875000000000000   1.0000000
B2   B   0.278158225067725   0.889094475094887   0.875000000000000   1.0000000
B2   B   0.611469032321437   0.889050067245135   0.875000000000000   1.0000000
B2   B   0.444790309630248   0.389061821481816   0.875000000000000   1.0000000
B2   B   0.944839724291512   0.889084570528967   0.875000000000000   1.0000000
B2   B   0.111036055964700   0.888771101215193   0.375000000000000   1.0000000
B2   B   0.778134270862929   0.389083492285984   0.875000000000000   1.0000000
B2   B   0.444435330708176   0.888884332021075   0.375000000000000   1.0000000
B2   B   0.279056301692090   0.390319629436574   0.375000000000000   1.0000000
B2   B   0.277555989565437   0.555535573274798   0.375000000000000   1.0000000
B2   B   0.612225981343730   0.391023910817440   0.375000000000000   1.0000000
B2   B   0.777556947267480   0.888607890914188   0.375000000000000   1.0000000
B2   B   0.944310150727346   0.388888922840418   0.375000000000000   1.0000000
B2   B   0.111505919249081   0.555738704243386   0.875000000000000   1.0000000
B2   B   0.278167188700099   0.055787422910082   0.875000000000000   1.0000000
B2   B   0.778126338939481   0.555729836135680   0.875000000000000   1.0000000
B2   B   0.611469032321437   0.055752298409434   0.875000000000000   1.0000000
B2   B   0.944856118204996   0.055760456740104   0.875000000000000   1.0000000
B2   B   0.055447744587448   0.111103683850946   0.124706306937401   1.0000000
B2   B   0.555181774385671   0.610854522592902   0.126029797734902   1.0000000
B2   B   0.388745361091152   0.111198159335779   0.125458298462618   1.0000000
B2   B   0.888618829055708   0.610976081194563   0.124547208163062   1.0000000
B2   B   0.722003560584622   0.111009795746843   0.124233036555021   1.0000000
B2   B   0.055389300940175   0.777728594889362   0.625681872350449   1.0000000
B2   B   0.388749534074749   0.777654621261101   0.625546077498347   1.0000000
B2   B   0.222198142591101   0.277765737962157   0.623945467358413   1.0000000
B2   B   0.721929375588929   0.777615937605541   0.625321450594032   1.0000000
B2   B   0.555181774385671   0.277660585125840   0.623970202264864   1.0000000
B2   B   0.888692844353660   0.277658309786210   0.625713970622395   1.0000000
B2   B   0.222098351093884   0.777715842213564   0.124323206931817   1.0000000
B2   B   0.055447744587448   0.277677394069963   0.124706306937401   1.0000000
B2   B   0.388758678813670   0.277908396805710   0.127399785131714   1.0000000
B2   B   0.555328233521231   0.777606853146437   0.124686300850059   1.0000000
B2   B   0.888642086318588   0.777674197179544   0.124431331095694   1.0000000
B2   B   0.721929375588929   0.277646771316940   0.124678549406075   1.0000000
B2   B   0.055419745573081   0.944457748747342   0.625518376410411   1.0000000
B2   B   0.388749534074884   0.944428246147262   0.625546077498347   1.0000000
B2   B   0.222161010599940   0.444263469237158   0.624501922621923   1.0000000
B2   B   0.554952363426740   0.444142848380038   0.623309220390097   1.0000000
B2   B   0.722003560584622   0.944327098171441   0.625766963445156   1.0000000
B2   B   0.888642086318588   0.444301222472784   0.625568668904420   1.0000000
B2   B   0.055419745573081   0.444295330159295   0.124481623590153   1.0000000
B2   B   0.222113794405592   0.944498482425977   0.124637637517954   1.0000000
B2   B   0.555367356478330   0.944350344906069   0.124277120790490   1.0000000
B2   B   0.388758678813670   0.444183615341361   0.127399785131714   1.0000000
B2   B   0.888692844353660   0.944367867900832   0.124286029377881   1.0000000
B2   B   0.721830128288867   0.444257903120931   0.125321168807123   1.0000000
B2   B   0.222113794405592   0.610948645313173   0.625362362482148   1.0000000
B2   B   0.055447744587448   0.111103683850946   0.625293693062718   1.0000000
B2   B   0.555181774385671   0.610854522592902   0.623970202264850   1.0000000
B2   B   0.388745361091152   0.111198159335779   0.624541701537907   1.0000000
B2   B   0.888618829055708   0.610976081194563   0.625452791836953   1.0000000
B2   B   0.055389300940175   0.610994039383344   0.124318127650086   1.0000000
B2   B   0.722003560584622   0.111009795746851   0.625766963445163   1.0000000
B2   B   0.222161010599940   0.111230874696337   0.125498077378191   1.0000000
B2   B   0.388745361091152   0.610880535089209   0.125458298462618   1.0000000
B2   B   0.721830128288867   0.610905558500941   0.125321168807123   1.0000000
B2   B   0.555328233521224   0.111054713707646   0.124686300850059   1.0000000
B2   B   0.388745361091152   0.610880535089209   0.624541701537907   1.0000000
B2   B   0.888711280445117   0.111022306889138   0.124248042782855   1.0000000
B2   B   0.222098351093884   0.777715842213564   0.625676793068804   1.0000000
B2   B   0.055447744587440   0.277677394069963   0.625293693062718   1.0000000
B2   B   0.388758678813670   0.277908396805710   0.622600214867981   1.0000000
B2   B   0.555328233521231   0.777606853146437   0.625313699149736   1.0000000
B2   B   0.888642086318588   0.777674197179544   0.625568668904420   1.0000000
B2   B   0.721929375588929   0.277646771316940   0.625321450594032   1.0000000
B2   B   0.055389300940175   0.777728594889362   0.124318127650086   1.0000000
B2   B   0.388749534074749   0.777654621261101   0.124453922501775   1.0000000
B2   B   0.222198142591101   0.277765737962157   0.126054532641777   1.0000000
B2   B   0.721929375588929   0.777615937605541   0.124678549406075   1.0000000
B2   B   0.555181774385671   0.277660585125840   0.126029797734902   1.0000000
B2   B   0.888692844353660   0.277658309786210   0.124286029377881   1.0000000
B2   B   0.055419745573081   0.444295330159295   0.625518376410411   1.0000000
B2   B   0.222113794405592   0.944498482425977   0.625362362482148   1.0000000
B2   B   0.555367356478329   0.944350344906069   0.625722879209652   1.0000000
B2   B   0.388758678813670   0.444183615341361   0.622600214867981   1.0000000
B2   B   0.888692844353660   0.944367867900832   0.625713970622395   1.0000000
B2   B   0.055419745573081   0.944457748747342   0.124481623590153   1.0000000
B2   B   0.721830128288867   0.444257903120682   0.624678831192111   1.0000000
B2   B   0.388749534074734   0.944428246147269   0.124453922501775   1.0000000
B2   B   0.222161010599940   0.444263469237158   0.125498077378191   1.0000000
B2   B   0.222113794405592   0.610948645313173   0.124637637517954   1.0000000
B2   B   0.554952363426740   0.444142848380038   0.126690779609904   1.0000000
B2   B   0.722003560584622   0.944327098171441   0.124233036555021   1.0000000
B2   B   0.888642086318588   0.444301222472784   0.124431331095694   1.0000000
B2   B   0.055389300940175   0.610994039383344   0.625681872350449   1.0000000
B2   B   0.222161010599940   0.111230874696337   0.624501922621923   1.0000000
B2   B   0.721830128288867   0.610905558500941   0.624678831192111   1.0000000
B2   B   0.555328233521224   0.111054713707646   0.625313699149736   1.0000000
B2   B   0.888711280445117   0.111022306889138   0.625751957217146   1.0000000


