data_1
_audit_creation_method   'vasp2cif'
_cell_length_a    14.93631414619966
_cell_length_b    14.936314146199727
_cell_length_c    13.341276283792837
_cell_angle_alpha    90.0
_cell_angle_beta    90.0
_cell_angle_gamma    119.99999999999984

_symmetry_space_group_name_H-M    'P 1'
loop_
_atom_site_label
_atom_site_type_symbol
_atom_site_fract_x
_atom_site_fract_y
_atom_site_fract_z
_atom_site_occupancy
C2   C   0.539941161168596   0.436637247250962   0.375000000000000   1.0000000
N2   N   0.111081684205772   0.055556092429757   0.125141045384061   1.0000000
N2   N   0.611048370291090   0.555575044951025   0.124122842452345   1.0000000
N2   N   0.444420822539990   0.055538202200464   0.124960711224890   1.0000000
N2   N   0.944386380207332   0.555519704339908   0.124785897201799   1.0000000
N2   N   0.777761189522982   0.055547261428159   0.124826759981159   1.0000000
N2   N   0.111066486812070   0.722199910072700   0.625158999447530   1.0000000
N2   N   0.444420822539990   0.722215953672862   0.625039288775104   1.0000000
N2   N   0.277728641398414   0.222210122085812   0.624066736774238   1.0000000
N2   N   0.777722754680197   0.722220410756652   0.625413413895780   1.0000000
N2   N   0.611077181548887   0.222163337759685   0.625349778672843   1.0000000
N2   N   0.944415892356289   0.222201066086484   0.625139370755998   1.0000000
N2   N   0.277749036347023   0.722201038686250   0.124879127072275   1.0000000
N2   N   0.111076506499730   0.222204919916526   0.125241617109658   1.0000000
N2   N   0.444411877754285   0.222187222999887   0.125357503664972   1.0000000
N2   N   0.611077181548887   0.722247177122532   0.124650221327152   1.0000000
N2   N   0.944386380207332   0.722200009200750   0.124785897201799   1.0000000
N2   N   0.777753963507425   0.222186379329158   0.124790425012892   1.0000000
N2   N   0.111072251821878   0.888882762690303   0.625087948644574   1.0000000
N2   N   0.444423580424125   0.888878456878725   0.625169026902478   1.0000000
N2   N   0.277728641398414   0.388851852645931   0.624066736774238   1.0000000
N2   N   0.611048370291090   0.388806658673393   0.625877157547654   1.0000000
N2   N   0.777753963507425   0.888900917511596   0.625209574987107   1.0000000
N2   N   0.944407284676195   0.388856360293672   0.625143270484233   1.0000000
N2   N   0.111081684205772   0.388858925109343   0.125141045384061   1.0000000
N2   N   0.277749036347023   0.888881330994102   0.124879127072275   1.0000000
N2   N   0.611094240518710   0.888898343139503   0.124816348415688   1.0000000
N2   N   0.444345531334644   0.388839432333986   0.124756419478843   1.0000000
N2   N   0.944407284676195   0.888884257715851   0.124856729515767   1.0000000
N2   N   0.777722754680197   0.388835677256872   0.124586586104219   1.0000000
N2   N   0.277750730819904   0.555527013308742   0.624706882759795   1.0000000
N2   N   0.111081684205772   0.055556092429757   0.624858954615939   1.0000000
N2   N   0.611048370291090   0.555575044951025   0.625877157547654   1.0000000
N2   N   0.444420822539990   0.055538202200464   0.625039288775104   1.0000000
N2   N   0.944386380207332   0.555519704339908   0.625214102798202   1.0000000
N2   N   0.111072251821878   0.555522822464904   0.124912051355426   1.0000000
N2   N   0.777761189522982   0.055547261428159   0.625173240018848   1.0000000
N2   N   0.277750730819904   0.055557050844498   0.125293117240204   1.0000000
N2   N   0.444411877754285   0.555557988087728   0.125357503664972   1.0000000
N2   N   0.777703541899161   0.555518437616248   0.124378269332946   1.0000000
N2   N   0.611094240518710   0.055529230712541   0.124816348415688   1.0000000
N2   N   0.444411877754285   0.555557988087728   0.624642496335029   1.0000000
N2   N   0.944415892356289   0.055548159603148   0.124860629244003   1.0000000
N2   N   0.277749036347023   0.722201038686250   0.625120872927724   1.0000000
N2   N   0.111076506499730   0.222204919916526   0.624758382890342   1.0000000
N2   N   0.444411877754285   0.222187222999887   0.624642496335029   1.0000000
N2   N   0.611077181548887   0.722247177122532   0.625349778672843   1.0000000
N2   N   0.944386380207332   0.722200009200750   0.625214102798202   1.0000000
N2   N   0.777753963507425   0.222186379329158   0.625209574987107   1.0000000
N2   N   0.111066486812070   0.722199910072700   0.124841000552469   1.0000000
N2   N   0.444420822539990   0.722215953672862   0.124960711224890   1.0000000
N2   N   0.277728641398414   0.222210122085812   0.125933263225762   1.0000000
N2   N   0.777722754680197   0.722220410756652   0.124586586104219   1.0000000
N2   N   0.611077181548887   0.222163337759685   0.124650221327152   1.0000000
N2   N   0.944415892356289   0.222201066086484   0.124860629244003   1.0000000
N2   N   0.111081684205772   0.388858925109343   0.624858954615939   1.0000000
N2   N   0.277749036347023   0.888881330994102   0.625120872927724   1.0000000
N2   N   0.611094240518710   0.888898343139503   0.625183651584304   1.0000000
N2   N   0.444345531334644   0.388839432333986   0.625243580521157   1.0000000
N2   N   0.944407284676195   0.888884257715851   0.625143270484233   1.0000000
N2   N   0.111072251821878   0.888882762690303   0.124912051355426   1.0000000
N2   N   0.777722754680197   0.388835677256872   0.625413413895780   1.0000000
N2   N   0.444423580424125   0.888878456878725   0.124830973097521   1.0000000
N2   N   0.277728641398414   0.388851852645931   0.125933263225762   1.0000000
N2   N   0.277750730819904   0.555527013308742   0.125293117240204   1.0000000
N2   N   0.611048370291090   0.388806658673393   0.124122842452345   1.0000000
N2   N   0.777753963507425   0.888900917511596   0.124790425012892   1.0000000
N2   N   0.944407284676195   0.388856360293672   0.124856729515767   1.0000000
N2   N   0.111072251821878   0.555522822464904   0.625087948644574   1.0000000
N2   N   0.277750730819904   0.055557050844498   0.624706882759795   1.0000000
N2   N   0.777703541899161   0.555518437616248   0.625621730667054   1.0000000
N2   N   0.611094240518710   0.055529230712541   0.625183651584304   1.0000000
N2   N   0.944415892356289   0.055548159603148   0.625139370755998   1.0000000
N2   N   0.057789064173607   0.112361801774574   0.375000000000000   1.0000000
N2   N   0.556315812638206   0.615859100297466   0.375000000000000   1.0000000
N2   N   0.389064833712970   0.109661872599254   0.375000000000000   1.0000000
N2   N   0.885992390131483   0.609662861732409   0.375000000000000   1.0000000
N2   N   0.723427417682747   0.111385068962169   0.375000000000000   1.0000000
N2   N   0.055480659528202   0.777739126117408   0.875000000000000   1.0000000
N2   N   0.388804494112566   0.777738052582072   0.875000000000000   1.0000000
N2   N   0.222148738619855   0.277741035976595   0.875000000000000   1.0000000
N2   N   0.722143840110484   0.777736891079516   0.875000000000000   1.0000000
N2   N   0.555467442140780   0.277732502388727   0.875000000000000   1.0000000
N2   N   0.888816817698452   0.277744316615815   0.875000000000000   1.0000000
N2   N   0.221297835991625   0.777315584662476   0.375000000000000   1.0000000
N2   N   0.057789064173607   0.278760595732361   0.375000000000000   1.0000000
N2   N   0.395487945945410   0.280057426023936   0.375000000000000   1.0000000
N2   N   0.556012526125727   0.779698061082844   0.375000000000000   1.0000000
N2   N   0.887380398980392   0.776742561041850   0.375000000000000   1.0000000
N2   N   0.722936257076464   0.277284655243455   0.375000000000000   1.0000000
N2   N   0.055480103088551   0.944402580402662   0.875000000000000   1.0000000
N2   N   0.388804494112566   0.944399774863830   0.875000000000000   1.0000000
N2   N   0.222143675960805   0.444410056264647   0.875000000000000   1.0000000
N2   N   0.555472076650066   0.444402704991694   0.875000000000000   1.0000000
N2   N   0.722141527463668   0.944403160859692   0.875000000000000   1.0000000
N2   N   0.888818079273271   0.444410818372025   0.875000000000000   1.0000000
N2   N   0.056268972144007   0.444640756713322   0.375000000000000   1.0000000
N2   N   0.221853983440425   0.944002382108674   0.375000000000000   1.0000000
N2   N   0.555944468774410   0.944638901053870   0.375000000000000   1.0000000
N2   N   0.395487945945410   0.448763853254817   0.375000000000000   1.0000000
N2   N   0.890201903348143   0.945311928723126   0.375000000000000   1.0000000
N2   N   0.717206814158247   0.442430878061790   0.375000000000000   1.0000000
N2   N   0.222139760000167   0.611074773007899   0.875000000000000   1.0000000
N2   N   0.055484947208032   0.111072976089273   0.875000000000000   1.0000000
N2   N   0.555467442140780   0.611068273085390   0.875000000000000   1.0000000
N2   N   0.388801570021321   0.111061791583812   0.875000000000000   1.0000000
N2   N   0.888821274736190   0.611077304034770   0.875000000000000   1.0000000
N2   N   0.054206554786260   0.610545685730076   0.375000000000000   1.0000000
N2   N   0.722141527463668   0.111071699937305   0.875000000000000   1.0000000
N2   N   0.225359089472736   0.113340933770905   0.375000000000000   1.0000000
N2   N   0.389064833712970   0.612736294447059   0.375000000000000   1.0000000
N2   N   0.717206814158247   0.608109269429793   0.375000000000000   1.0000000
N2   N   0.556012526125727   0.109647798376219   0.375000000000000   1.0000000
N2   N   0.388801570021321   0.611073111770852   0.875000000000000   1.0000000
N2   N   0.890726739811053   0.112030036572194   0.375000000000000   1.0000000
N2   N   0.222141838788764   0.777737586061046   0.875000000000000   1.0000000
N2   N   0.055484947208032   0.277745304452095   0.875000000000000   1.0000000
N2   N   0.388805944086041   0.277731352257121   0.875000000000000   1.0000000
N2   N   0.555468271886059   0.777735127012133   0.875000000000000   1.0000000
N2   N   0.888818079273271   0.777740594234582   0.875000000000000   1.0000000
N2   N   0.722143840110484   0.277740282364303   0.875000000000000   1.0000000
N2   N   0.054206554786260   0.776994202389519   0.375000000000000   1.0000000
N2   N   0.388541414738263   0.778131565499995   0.375000000000000   1.0000000
N2   N   0.225237687038525   0.279285510185930   0.375000000000000   1.0000000
N2   N   0.722936257076464   0.778984935166344   0.375000000000000   1.0000000
N2   N   0.556315812638206   0.273790045674076   0.375000000000000   1.0000000
N2   N   0.890201903348143   0.278223307958353   0.375000000000000   1.0000000
N2   N   0.055480103088551   0.444410856019218   0.875000000000000   1.0000000
N2   N   0.222139760000167   0.944398320325605   0.875000000000000   1.0000000
N2   N   0.555469087465920   0.944401210399626   0.875000000000000   1.0000000
N2   N   0.388805944086041   0.444407925162256   0.875000000000000   1.0000000
N2   N   0.888816817698452   0.944405834415974   0.875000000000000   1.0000000
N2   N   0.056268972144007   0.944961548764013   0.375000000000000   1.0000000
N2   N   0.722145701922256   0.444407798087210   0.875000000000000   1.0000000
N2   N   0.388541414738263   0.943743182571602   0.375000000000000   1.0000000
N2   N   0.225359089472736   0.445351489035174   0.375000000000000   1.0000000
N2   N   0.221853983440425   0.611184934665087   0.375000000000000   1.0000000
N2   N   0.723427417682747   0.945375682053908   0.375000000000000   1.0000000
N2   N   0.887380398980392   0.443971171271878   0.375000000000000   1.0000000
N2   N   0.055480659528202   0.611074866744122   0.875000000000000   1.0000000
N2   N   0.222143675960805   0.111066953029487   0.875000000000000   1.0000000
N2   N   0.722145701922256   0.611071237168374   0.875000000000000   1.0000000
N2   N   0.555468271886059   0.111066478207261   0.875000000000000   1.0000000
N2   N   0.888816463346413   0.111074898339878   0.875000000000000   1.0000000
B2   B   0.114038162091801   0.057374156375629   0.375000000000000   1.0000000
B2   B   0.602261394903895   0.552161659048553   0.375000000000000   1.0000000
B2   B   0.444645002306346   0.054904615889248   0.375000000000000   1.0000000
B2   B   0.942577825000791   0.554962773963690   0.375000000000000   1.0000000
B2   B   0.779429177047869   0.056381255190602   0.375000000000000   1.0000000
B2   B   0.111034794772618   0.722184064052973   0.875000000000000   1.0000000
B2   B   0.444345736750960   0.722135860348872   0.875000000000000   1.0000000
B2   B   0.277758123916375   0.222228055794809   0.875000000000000   1.0000000
B2   B   0.777668395037292   0.722138316664553   0.875000000000000   1.0000000
B2   B   0.610993683752693   0.222211601208192   0.875000000000000   1.0000000
B2   B   0.944402537343536   0.222205344312191   0.875000000000000   1.0000000
B2   B   0.277306824063912   0.722099466496394   0.375000000000000   1.0000000
B2   B   0.114747080546219   0.224040206939770   0.375000000000000   1.0000000
B2   B   0.446179995502731   0.221935386337139   0.375000000000000   1.0000000
B2   B   0.611863154130200   0.724649634671337   0.375000000000000   1.0000000
B2   B   0.942577825000791   0.720948384370439   0.375000000000000   1.0000000
B2   B   0.779026546336562   0.222596544837601   0.375000000000000   1.0000000
B2   B   0.111047489982201   0.888863980185086   0.875000000000000   1.0000000
B2   B   0.444348337763560   0.888840835548444   0.875000000000000   1.0000000
B2   B   0.277758123916375   0.388863401454896   0.875000000000000   1.0000000
B2   B   0.610976262897070   0.388856504364610   0.875000000000000   1.0000000
B2   B   0.777689981285507   0.888820942599890   0.875000000000000   1.0000000
B2   B   0.944377488083443   0.388865476488614   0.875000000000000   1.0000000
B2   B   0.114038162091801   0.389997339049501   0.375000000000000   1.0000000
B2   B   0.277306824063912   0.888540690900841   0.375000000000000   1.0000000
B2   B   0.611965361840303   0.889942226040416   0.375000000000000   1.0000000
B2   B   0.944670131353853   0.888684216318354   0.375000000000000   1.0000000
B2   B   0.775127184194865   0.388442452056029   0.375000000000000   1.0000000
B2   B   0.277716514713398   0.555496597240404   0.875000000000000   1.0000000
B2   B   0.111081888396845   0.055546723709575   0.875000000000000   1.0000000
B2   B   0.610976262897070   0.555453091865789   0.875000000000000   1.0000000
B2   B   0.444345736750960   0.055543209735416   0.875000000000000   1.0000000
B2   B   0.944356927029389   0.555517728920488   0.875000000000000   1.0000000
B2   B   0.110808043707435   0.555599930749164   0.375000000000000   1.0000000
B2   B   0.777700475174513   0.055516904253924   0.875000000000000   1.0000000
B2   B   0.278578109431266   0.055910119620834   0.375000000000000   1.0000000
B2   B   0.446179995502731   0.557577942498927   0.375000000000000   1.0000000
B2   B   0.773389816987445   0.553361575160387   0.375000000000000   1.0000000
B2   B   0.611965361840303   0.055356469133217   0.375000000000000   1.0000000
B2   B   0.444346307340837   0.555456350193865   0.875000000000000   1.0000000
B2   B   0.946709487003731   0.056712667409013   0.375000000000000   1.0000000
B2   B   0.277698477860883   0.722169744065711   0.875000000000000   1.0000000
B2   B   0.111103967665118   0.222218650499227   0.875000000000000   1.0000000
B2   B   0.444346307340837   0.222223290480307   0.875000000000000   1.0000000
B2   B   0.610993683752693   0.722115415877828   0.875000000000000   1.0000000
B2   B   0.944356927029389   0.722172531442243   0.875000000000000   1.0000000
B2   B   0.777689981285507   0.222202372018946   0.875000000000000   1.0000000
B2   B   0.109998040361483   0.721665686847406   0.375000000000000   1.0000000
B2   B   0.444645002306346   0.723073719750434   0.375000000000000   1.0000000
B2   B   0.284987371987244   0.228002729189920   0.375000000000000   1.0000000
B2   B   0.775127184194865   0.720018065472165   0.375000000000000   1.0000000
B2   B   0.611863154130200   0.220546852792190   0.375000000000000   1.0000000
B2   B   0.946709487003731   0.223330152928054   0.375000000000000   1.0000000
B2   B   0.111081888396845   0.388868498020599   0.875000000000000   1.0000000
B2   B   0.277698477860883   0.888862067128500   0.875000000000000   1.0000000
B2   B   0.611008270613345   0.888817562898303   0.875000000000000   1.0000000
B2   B   0.444360289215897   0.388846811274613   0.875000000000000   1.0000000
B2   B   0.944377488083443   0.888845344928158   0.875000000000000   1.0000000
B2   B   0.110808043707435   0.888541446291600   0.375000000000000   1.0000000
B2   B   0.777668395037292   0.388863411706067   0.875000000000000   1.0000000
B2   B   0.444507527596423   0.888920430464876   0.375000000000000   1.0000000
B2   B   0.284987371987244   0.390317976130652   0.375000000000000   1.0000000
B2   B   0.278578109431266   0.556001323143760   0.375000000000000   1.0000000
B2   B   0.602261394903895   0.383433069188661   0.375000000000000   1.0000000
B2   B   0.779026546336562   0.889763334832282   0.375000000000000   1.0000000
B2   B   0.944670131353853   0.389319248368826   0.375000000000000   1.0000000
B2   B   0.111047489982201   0.555516843130444   0.875000000000000   1.0000000
B2   B   0.277716514713398   0.055553250806329   0.875000000000000   1.0000000
B2   B   0.777659191343103   0.555496262338218   0.875000000000000   1.0000000
B2   B   0.611008270613345   0.055524041048370   0.875000000000000   1.0000000
B2   B   0.944402537343536   0.055530526364680   0.875000000000000   1.0000000
B2   B   0.055625329247443   0.111184423766456   0.125296246670274   1.0000000
B2   B   0.555395466725296   0.610928591412273   0.125178908812789   1.0000000
B2   B   0.388922375600416   0.111304201386029   0.125653121917275   1.0000000
B2   B   0.888706912201601   0.611020122767470   0.124878326354726   1.0000000
B2   B   0.722182137385694   0.111096427558457   0.124982686678200   1.0000000
B2   B   0.055500383628742   0.777780993804973   0.624982879659835   1.0000000
B2   B   0.388892587979362   0.777721581215912   0.624921805119442   1.0000000
B2   B   0.222387005846672   0.277860169590007   0.623743625877603   1.0000000
B2   B   0.722099532399590   0.777699227034173   0.625118292988435   1.0000000
B2   B   0.555395466725296   0.277800208646361   0.624821091187210   1.0000000
B2   B   0.888861673390047   0.277747933105375   0.624997515991100   1.0000000
B2   B   0.222218948258483   0.777776140795906   0.125012456118555   1.0000000
B2   B   0.055625329247443   0.277774238814323   0.125296246670274   1.0000000
B2   B   0.388965229898363   0.278002080409831   0.126896377259918   1.0000000
B2   B   0.555505066072227   0.777696774705208   0.125046920986747   1.0000000
B2   B   0.888772228631600   0.777733376599544   0.124947727879292   1.0000000
B2   B   0.722099532399590   0.277733638698751   0.124881707011565   1.0000000
B2   B   0.055568884390694   0.944522470950131   0.624842897796560   1.0000000
B2   B   0.388892587979362   0.944504340096785   0.624921805119442   1.0000000
B2   B   0.222340866421101   0.444348648272746   0.624091817275041   1.0000000
B2   B   0.555211684444282   0.444272508888805   0.624110538622413   1.0000000
B2   B   0.722182137385694   0.944419043160565   0.625017313321800   1.0000000
B2   B   0.888772228631600   0.444372185365391   0.625052272120707   1.0000000
B2   B   0.055568884390694   0.444379746773891   0.125157102203441   1.0000000
B2   B   0.222255876285709   0.944572098395706   0.125231767606840   1.0000000
B2   B   0.555531605303688   0.944432469318508   0.125004165286319   1.0000000
B2   B   0.388965229898363   0.444296482821867   0.126896377259918   1.0000000
B2   B   0.888861673390047   0.944447073618007   0.125002484008900   1.0000000
B2   B   0.721940947333025   0.444313264861683   0.124671892714934   1.0000000
B2   B   0.222255876285709   0.611017111223339   0.624768232393159   1.0000000
B2   B   0.055625329247443   0.111184423766456   0.624703753329727   1.0000000
B2   B   0.555395466725296   0.610928591412273   0.624821091187210   1.0000000
B2   B   0.388922375600416   0.111304201386029   0.624346878082726   1.0000000
B2   B   0.888706912201601   0.611020122767470   0.625121673645274   1.0000000
B2   B   0.055500383628742   0.611052723157104   0.125017120340166   1.0000000
B2   B   0.722182137385694   0.111096427558457   0.625017313321800   1.0000000
B2   B   0.222340866421101   0.111325551481690   0.125908182724960   1.0000000
B2   B   0.388922375600416   0.610951507547730   0.125653121917275   1.0000000
B2   B   0.721940947333025   0.610961015804670   0.124671892714934   1.0000000
B2   B   0.555505066072227   0.111141624700353   0.125046920986747   1.0000000
B2   B   0.388922375600416   0.610951507547730   0.624346878082726   1.0000000
B2   B   0.888892656823442   0.111112995078392   0.125003934689050   1.0000000
B2   B   0.222218948258483   0.777776140795906   0.624987543881445   1.0000000
B2   B   0.055625329247443   0.277774238814323   0.624703753329727   1.0000000
B2   B   0.388965229898363   0.278002080409831   0.623103622740075   1.0000000
B2   B   0.555505066072227   0.777696774705208   0.624953079013253   1.0000000
B2   B   0.888772228631600   0.777733376599544   0.625052272120707   1.0000000
B2   B   0.722099532399590   0.277733638698751   0.625118292988435   1.0000000
B2   B   0.055500383628742   0.777780993804973   0.125017120340166   1.0000000
B2   B   0.388892587979362   0.777721581215912   0.125078194880559   1.0000000
B2   B   0.222387005846672   0.277860169590007   0.126256374122398   1.0000000
B2   B   0.722099532399590   0.777699227034173   0.124881707011565   1.0000000
B2   B   0.555395466725296   0.277800208646361   0.125178908812789   1.0000000
B2   B   0.888861673390047   0.277747933105375   0.125002484008900   1.0000000
B2   B   0.055568884390694   0.444379746773891   0.624842897796560   1.0000000
B2   B   0.222255876285709   0.944572098395706   0.624768232393159   1.0000000
B2   B   0.555531605303688   0.944432469318508   0.624995834713680   1.0000000
B2   B   0.388965229898363   0.444296482821867   0.623103622740075   1.0000000
B2   B   0.888861673390047   0.944447073618007   0.624997515991100   1.0000000
B2   B   0.055568884390694   0.944522470950131   0.125157102203441   1.0000000
B2   B   0.721940947333025   0.444313264861683   0.625328107285065   1.0000000
B2   B   0.388892587979362   0.944504340096785   0.125078194880559   1.0000000
B2   B   0.222340866421101   0.444348648272746   0.125908182724960   1.0000000
B2   B   0.222255876285709   0.611017111223339   0.125231767606840   1.0000000
B2   B   0.555211684444282   0.444272508888805   0.125889461377587   1.0000000
B2   B   0.722182137385694   0.944419043160565   0.124982686678200   1.0000000
B2   B   0.888772228631600   0.444372185365391   0.124947727879292   1.0000000
B2   B   0.055500383628742   0.611052723157104   0.624982879659835   1.0000000
B2   B   0.222340866421101   0.111325551481690   0.624091817275041   1.0000000
B2   B   0.721940947333025   0.610961015804670   0.625328107285065   1.0000000
B2   B   0.555505066072227   0.111141624700353   0.624953079013253   1.0000000
B2   B   0.888892656823442   0.111112995078392   0.624996065310951   1.0000000


