data_1
_audit_creation_method   'vasp2cif'
_cell_length_a    14.93631414619966
_cell_length_b    14.936314146199727
_cell_length_c    13.341276283792837
_cell_angle_alpha    90.0
_cell_angle_beta    90.0
_cell_angle_gamma    119.99999999999984

_symmetry_space_group_name_H-M    'P 1'
loop_
_atom_site_label
_atom_site_type_symbol
_atom_site_fract_x
_atom_site_fract_y
_atom_site_fract_z
_atom_site_occupancy
P2   P   0.477714544223462   0.405523938778396   0.375000000000000   1.0000000
N2   N   0.111010166208631   0.055491670776429   0.125070065905566   1.0000000
N2   N   0.610961108287120   0.555469390704105   0.124556728523795   1.0000000
N2   N   0.444374835400217   0.055520329159239   0.125083301447812   1.0000000
N2   N   0.944344261339705   0.555512539021930   0.125063124058959   1.0000000
N2   N   0.777713424064663   0.055523378698998   0.124981499617843   1.0000000
N2   N   0.111031356309990   0.722182344821660   0.625002710368315   1.0000000
N2   N   0.444374835400217   0.722187839574314   0.624916698552190   1.0000000
N2   N   0.277646305670408   0.222147715094231   0.625821186569113   1.0000000
N2   N   0.777661538382164   0.722145901998650   0.624835407566818   1.0000000
N2   N   0.611015829025082   0.222180853958238   0.624974349733667   1.0000000
N2   N   0.944362252731164   0.222189237402902   0.624971815227977   1.0000000
N2   N   0.277712340184464   0.722192557744675   0.125031507892790   1.0000000
N2   N   0.111008786628293   0.222171059980811   0.124937941319202   1.0000000
N2   N   0.444338603442271   0.222171922525378   0.124290131478917   1.0000000
N2   N   0.611015829025082   0.722168308400171   0.125025650266334   1.0000000
N2   N   0.944344261339705   0.722165055651110   0.125063124058959   1.0000000
N2   N   0.777699801138996   0.222193432379979   0.125038475440205   1.0000000
N2   N   0.111026965491280   0.888837736329742   0.624972237146892   1.0000000
N2   N   0.444389162272316   0.888861247802823   0.624968461599162   1.0000000
N2   N   0.277646305670408   0.388831923909506   0.625821186569113   1.0000000
N2   N   0.610961108287120   0.388825050916340   0.625443271476205   1.0000000
N2   N   0.777699801138996   0.888839702092346   0.624961524559797   1.0000000
N2   N   0.944350939316279   0.388857979715363   0.624958723574749   1.0000000
N2   N   0.111010166208631   0.388851828765531   0.125070065905566   1.0000000
N2   N   0.277712340184464   0.888853115773119   0.125031507892790   1.0000000
N2   N   0.611049210330672   0.888858343456507   0.125020424741326   1.0000000
N2   N   0.444179883978437   0.388756608655883   0.121496184967132   1.0000000
N2   N   0.944350939316279   0.888826292934241   0.125041276425254   1.0000000
N2   N   0.777661538382164   0.388848969716842   0.125164592433180   1.0000000
N2   N   0.277691696730146   0.555517347011638   0.625010750487972   1.0000000
N2   N   0.111010166208631   0.055491670776429   0.624929934094430   1.0000000
N2   N   0.610961108287120   0.555469390704105   0.625443271476205   1.0000000
N2   N   0.444374835400217   0.055520329159239   0.624916698552190   1.0000000
N2   N   0.944344261339705   0.555512539021930   0.624936875941041   1.0000000
N2   N   0.111026965491280   0.555522562494868   0.125027762853108   1.0000000
N2   N   0.777713424064663   0.055523378698998   0.625018500382158   1.0000000
N2   N   0.277691696730146   0.055507683051843   0.124989249512029   1.0000000
N2   N   0.444338603442271   0.555500014250228   0.124290131478917   1.0000000
N2   N   0.777651838176227   0.555492585754780   0.125202690430028   1.0000000
N2   N   0.611049210330672   0.055524200207495   0.125020424741326   1.0000000
N2   N   0.444338603442271   0.555500014250228   0.625709868521084   1.0000000
N2   N   0.944362252731164   0.055506348661599   0.125028184772022   1.0000000
N2   N   0.277712340184464   0.722192557744675   0.624968492107211   1.0000000
N2   N   0.111008786628293   0.222171059980811   0.625062058680799   1.0000000
N2   N   0.444338603442271   0.222171922525378   0.625709868521084   1.0000000
N2   N   0.611015829025082   0.722168308400171   0.624974349733667   1.0000000
N2   N   0.944344261339705   0.722165055651110   0.624936875941041   1.0000000
N2   N   0.777699801138996   0.222193432379979   0.624961524559797   1.0000000
N2   N   0.111031356309990   0.722182344821660   0.124997289631683   1.0000000
N2   N   0.444374835400217   0.722187839574314   0.125083301447812   1.0000000
N2   N   0.277646305670408   0.222147715094231   0.124178813430888   1.0000000
N2   N   0.777661538382164   0.722145901998650   0.125164592433180   1.0000000
N2   N   0.611015829025082   0.222180853958238   0.125025650266334   1.0000000
N2   N   0.944362252731164   0.222189237402902   0.125028184772022   1.0000000
N2   N   0.111010166208631   0.388851828765531   0.624929934094430   1.0000000
N2   N   0.277712340184464   0.888853115773119   0.624968492107211   1.0000000
N2   N   0.611049210330672   0.888858343456507   0.624979575258675   1.0000000
N2   N   0.444179883978437   0.388756608655883   0.628503815032869   1.0000000
N2   N   0.944350939316279   0.888826292934241   0.624958723574749   1.0000000
N2   N   0.111026965491280   0.888837736329742   0.125027762853108   1.0000000
N2   N   0.777661538382164   0.388848969716842   0.624835407566818   1.0000000
N2   N   0.444389162272316   0.888861247802823   0.125031538400836   1.0000000
N2   N   0.277646305670408   0.388831923909506   0.124178813430888   1.0000000
N2   N   0.277691696730146   0.555517347011638   0.124989249512029   1.0000000
N2   N   0.610961108287120   0.388825050916340   0.124556728523795   1.0000000
N2   N   0.777699801138996   0.888839702092346   0.125038475440205   1.0000000
N2   N   0.944350939316279   0.388857979715363   0.125041276425254   1.0000000
N2   N   0.111026965491280   0.555522562494868   0.624972237146892   1.0000000
N2   N   0.277691696730146   0.055507683051843   0.625010750487972   1.0000000
N2   N   0.777651838176227   0.555492585754780   0.624797309569973   1.0000000
N2   N   0.611049210330672   0.055524200207495   0.624979575258675   1.0000000
N2   N   0.944362252731164   0.055506348661599   0.624971815227977   1.0000000
N2   N   0.056230866510805   0.111529550322888   0.375000000000000   1.0000000
N2   N   0.555371899859022   0.614443822248282   0.375000000000000   1.0000000
N2   N   0.387936004160878   0.108022183413964   0.375000000000000   1.0000000
N2   N   0.887088182406505   0.610210757869925   0.375000000000000   1.0000000
N2   N   0.722525939439185   0.110869927832488   0.375000000000000   1.0000000
N2   N   0.055575920134881   0.777788081205189   0.875000000000000   1.0000000
N2   N   0.388910691076589   0.777788779179706   0.875000000000000   1.0000000
N2   N   0.222239062112735   0.277786197723035   0.875000000000000   1.0000000
N2   N   0.722243353646933   0.777783597715317   0.875000000000000   1.0000000
N2   N   0.555577551821634   0.277791142353160   0.875000000000000   1.0000000
N2   N   0.888910941220668   0.277791593560350   0.875000000000000   1.0000000
N2   N   0.220933196810962   0.777133265072146   0.375000000000000   1.0000000
N2   N   0.056230866510805   0.278034649521252   0.375000000000000   1.0000000
N2   N   0.389115443063177   0.273752591078812   0.375000000000000   1.0000000
N2   N   0.555310606169268   0.779290351837497   0.375000000000000   1.0000000
N2   N   0.888299833744480   0.777781316452024   0.375000000000000   1.0000000
N2   N   0.722399005491241   0.276850292314286   0.375000000000000   1.0000000
N2   N   0.055575037195088   0.944452382976877   0.875000000000000   1.0000000
N2   N   0.388910691076589   0.944455245230221   0.875000000000000   1.0000000
N2   N   0.222237876868203   0.444456378857224   0.875000000000000   1.0000000
N2   N   0.555586698240870   0.444460015787099   0.875000000000000   1.0000000
N2   N   0.722239421843014   0.944451162593911   0.875000000000000   1.0000000
N2   N   0.888913187211625   0.444457504770228   0.875000000000000   1.0000000
N2   N   0.055214838224240   0.444327447515560   0.375000000000000   1.0000000
N2   N   0.221079912135874   0.943274007484846   0.375000000000000   1.0000000
N2   N   0.555288178856524   0.944310756094929   0.375000000000000   1.0000000
N2   N   0.389115443063177   0.448696185317700   0.375000000000000   1.0000000
N2   N   0.889250806907748   0.944973017598032   0.375000000000000   1.0000000
N2   N   0.720991952183115   0.443083163437765   0.375000000000000   1.0000000
N2   N   0.222239827986722   0.611121291198956   0.875000000000000   1.0000000
N2   N   0.055573553912256   0.111117949034250   0.875000000000000   1.0000000
N2   N   0.555577551821634   0.611119742801808   0.875000000000000   1.0000000
N2   N   0.388908125583047   0.111118669315685   0.875000000000000   1.0000000
N2   N   0.888913139684106   0.611123236508726   0.875000000000000   1.0000000
N2   N   0.054198611954910   0.610559582088903   0.375000000000000   1.0000000
N2   N   0.722239421843014   0.111121592582439   0.875000000000000   1.0000000
N2   N   0.222189405332688   0.110582011293283   0.375000000000000   1.0000000
N2   N   0.387936004160878   0.613247154080256   0.375000000000000   1.0000000
N2   N   0.720991952183115   0.611242122078688   0.375000000000000   1.0000000
N2   N   0.555310606169268   0.109353587665110   0.375000000000000   1.0000000
N2   N   0.388908125583047   0.611122789600704   0.875000000000000   1.0000000
N2   N   0.889475263449948   0.111404298391647   0.375000000000000   1.0000000
N2   N   0.222242262264982   0.777787797799159   0.875000000000000   1.0000000
N2   N   0.055573553912256   0.277788938211341   0.875000000000000   1.0000000
N2   N   0.388904034923418   0.277777193770354   0.875000000000000   1.0000000
N2   N   0.555574581221201   0.777783991327854   0.875000000000000   1.0000000
N2   N   0.888913187211625   0.777789015774733   0.875000000000000   1.0000000
N2   N   0.722243353646933   0.277793089264953   0.875000000000000   1.0000000
N2   N   0.054198611954910   0.776972363199345   0.375000000000000   1.0000000
N2   N   0.387982085085841   0.778122391873343   0.375000000000000   1.0000000
N2   N   0.223538431029651   0.278435882181495   0.375000000000000   1.0000000
N2   N   0.722399005491241   0.778882046510287   0.375000000000000   1.0000000
N2   N   0.555371899859022   0.274261410944074   0.375000000000000   1.0000000
N2   N   0.889250806907748   0.277611122643048   0.375000000000000   1.0000000
N2   N   0.055575037195088   0.444455987551540   0.875000000000000   1.0000000
N2   N   0.222239827986722   0.944451870121102   0.875000000000000   1.0000000
N2   N   0.555571764649113   0.944452548991223   0.875000000000000   1.0000000
N2   N   0.388904034923418   0.444460174486401   0.875000000000000   1.0000000
N2   N   0.888910941220668   0.944452680993654   0.875000000000000   1.0000000
N2   N   0.055214838224240   0.944220724042011   0.375000000000000   1.0000000
N2   N   0.722249044365785   0.444459310344892   0.875000000000000   1.0000000
N2   N   0.387982085085841   0.943193026545833   0.375000000000000   1.0000000
N2   N   0.222189405332688   0.444940727372740   0.375000000000000   1.0000000
N2   N   0.221079912135874   0.611139237984369   0.375000000000000   1.0000000
N2   N   0.722525939439185   0.944989344940032   0.375000000000000   1.0000000
N2   N   0.888299833744480   0.443851850625792   0.375000000000000   1.0000000
N2   N   0.055575920134881   0.611121172263030   0.875000000000000   1.0000000
N2   N   0.222237876868203   0.111114831344315   0.875000000000000   1.0000000
N2   N   0.722249044365785   0.611123067354230   0.875000000000000   1.0000000
N2   N   0.555574581221201   0.111123923226683   0.875000000000000   1.0000000
N2   N   0.888909105409592   0.111121219371469   0.875000000000000   1.0000000
B2   B   0.111203875270202   0.055419909647282   0.375000000000000   1.0000000
B2   B   0.610879019842943   0.559648301943749   0.375000000000000   1.0000000
B2   B   0.444056727763710   0.053626554593620   0.375000000000000   1.0000000
B2   B   0.943144774125111   0.554920717524473   0.375000000000000   1.0000000
B2   B   0.778392103712158   0.055862718522746   0.375000000000000   1.0000000
B2   B   0.111130579636109   0.722231956484719   0.875000000000000   1.0000000
B2   B   0.444460834718876   0.722221910583462   0.875000000000000   1.0000000
B2   B   0.277808487501869   0.222240029338150   0.875000000000000   1.0000000
B2   B   0.777795064486311   0.722222954230817   0.875000000000000   1.0000000
B2   B   0.611124928104606   0.222242797357551   0.875000000000000   1.0000000
B2   B   0.944468710136362   0.222235091184109   0.875000000000000   1.0000000
B2   B   0.276784036056329   0.722098170202608   0.375000000000000   1.0000000
B2   B   0.112245859500606   0.222789596416967   0.375000000000000   1.0000000
B2   B   0.443631772546952   0.217994953672497   0.375000000000000   1.0000000
B2   B   0.611532587609766   0.725021046602022   0.375000000000000   1.0000000
B2   B   0.943144774125111   0.721557389933975   0.375000000000000   1.0000000
B2   B   0.778282391877330   0.221788997619882   0.375000000000000   1.0000000
B2   B   0.111131637650585   0.888901038719645   0.875000000000000   1.0000000
B2   B   0.444459688981176   0.888896511157253   0.875000000000000   1.0000000
B2   B   0.277808487501869   0.388901791497046   0.875000000000000   1.0000000
B2   B   0.611121480649783   0.388909057825810   0.875000000000000   1.0000000
B2   B   0.777796026654276   0.888892989576296   0.875000000000000   1.0000000
B2   B   0.944465382768805   0.388900233724362   0.875000000000000   1.0000000
B2   B   0.111203875270202   0.389117298956249   0.375000000000000   1.0000000
B2   B   0.276784036056329   0.888019199187051   0.375000000000000   1.0000000
B2   B   0.611367172707397   0.889808072462816   0.375000000000000   1.0000000
B2   B   0.944257072002865   0.888982938711436   0.375000000000000   1.0000000
B2   B   0.777409737840177   0.387876533572704   0.375000000000000   1.0000000
B2   B   0.277799439292265   0.555561052341011   0.875000000000000   1.0000000
B2   B   0.111136978808316   0.055569892798868   0.875000000000000   1.0000000
B2   B   0.611121480649783   0.555545756157302   0.875000000000000   1.0000000
B2   B   0.444460834718876   0.055572257468752   0.875000000000000   1.0000000
B2   B   0.944462055208538   0.555564971818924   0.875000000000000   1.0000000
B2   B   0.110083461903590   0.555335041202540   0.375000000000000   1.0000000
B2   B   0.777794629469390   0.055563981401361   0.875000000000000   1.0000000
B2   B   0.276888091181142   0.054149540073041   0.375000000000000   1.0000000
B2   B   0.443631772546952   0.558970152207793   0.375000000000000   1.0000000
B2   B   0.775958976480183   0.554646154906760   0.375000000000000   1.0000000
B2   B   0.611367172707397   0.054892433577908   0.375000000000000   1.0000000
B2   B   0.444459677845681   0.555549244806917   0.875000000000000   1.0000000
B2   B   0.945150226364295   0.056073208183283   0.375000000000000   1.0000000
B2   B   0.277797180377623   0.722229010308720   0.875000000000000   1.0000000
B2   B   0.111141238951638   0.222237286142484   0.875000000000000   1.0000000
B2   B   0.444459677845681   0.222243766372096   0.875000000000000   1.0000000
B2   B   0.611124928104606   0.722215464080380   0.875000000000000   1.0000000
B2   B   0.944462055208538   0.722230416722950   0.875000000000000   1.0000000
B2   B   0.777796026654276   0.222236370411310   0.875000000000000   1.0000000
B2   B   0.109832051167066   0.721582692250197   0.375000000000000   1.0000000
B2   B   0.444056727763710   0.723763506503424   0.375000000000000   1.0000000
B2   B   0.278529810021820   0.222067035078146   0.375000000000000   1.0000000
B2   B   0.777409737840177   0.722866537600800   0.375000000000000   1.0000000
B2   B   0.611532587609766   0.219844874341074   0.375000000000000   1.0000000
B2   B   0.945150226364295   0.222410351514349   0.375000000000000   1.0000000
B2   B   0.111136978808316   0.388900419342777   0.875000000000000   1.0000000
B2   B   0.277797180377623   0.888901503402231   0.875000000000000   1.0000000
B2   B   0.611126042394929   0.888891988921276   0.875000000000000   1.0000000
B2   B   0.444464093394403   0.388898713363865   0.875000000000000   1.0000000
B2   B   0.944465382768805   0.888898482377773   0.875000000000000   1.0000000
B2   B   0.110083461903590   0.888081754034379   0.375000000000000   1.0000000
B2   B   0.777795064486311   0.388905443588827   0.875000000000000   1.0000000
B2   B   0.444036593520518   0.888684963426928   0.375000000000000   1.0000000
B2   B   0.278529810021820   0.389796108277004   0.375000000000000   1.0000000
B2   B   0.276888091181142   0.556071884441436   0.375000000000000   1.0000000
B2   B   0.610879019842943   0.384564051232521   0.375000000000000   1.0000000
B2   B   0.778282391877330   0.889826727590781   0.375000000000000   1.0000000
B2   B   0.944257072002865   0.388607466624759   0.375000000000000   1.0000000
B2   B   0.111131637650585   0.555563932264267   0.875000000000000   1.0000000
B2   B   0.277799439292265   0.055571720284591   0.875000000000000   1.0000000
B2   B   0.777790266441948   0.555561799887642   0.875000000000000   1.0000000
B2   B   0.611126042394929   0.055567386806983   0.875000000000000   1.0000000
B2   B   0.944468710136362   0.055566952285585   0.875000000000000   1.0000000
B2   B   0.055482711405175   0.111075382601439   0.125017225173357   1.0000000
B2   B   0.555421395178878   0.611012891128780   0.124582002215212   1.0000000
B2   B   0.388809490685471   0.111097599120464   0.124832438343949   1.0000000
B2   B   0.888763043886854   0.611048188610098   0.125069750274375   1.0000000
B2   B   0.722159913815001   0.111081593254376   0.124982372605379   1.0000000
B2   B   0.055470204090714   0.777733803370232   0.625006453529401   1.0000000
B2   B   0.388827947319388   0.777743560122694   0.624972795183046   1.0000000
B2   B   0.222150709691156   0.277742021512246   0.625572888966917   1.0000000
B2   B   0.722119497470257   0.777716586446486   0.624958224572892   1.0000000
B2   B   0.555421395178878   0.277741837383440   0.625417997784787   1.0000000
B2   B   0.888814730506109   0.277745913301025   0.624984536855277   1.0000000
B2   B   0.222155272931340   0.777744303132338   0.124990012210130   1.0000000
B2   B   0.055482711405175   0.277740662137071   0.125017225173357   1.0000000
B2   B   0.388771395005100   0.277766398211912   0.123309355511522   1.0000000
B2   B   0.555481335192345   0.777734672147991   0.125013595778313   1.0000000
B2   B   0.888774113943401   0.777711435861254   0.125052726828870   1.0000000
B2   B   0.722119497470257   0.277736244357106   0.125041775427107   1.0000000
B2   B   0.055472426785857   0.944399723707122   0.624962889792943   1.0000000
B2   B   0.388827947319388   0.944417720530028   0.624972795183046   1.0000000
B2   B   0.222136837465463   0.444386120432931   0.625170593112731   1.0000000
B2   B   0.555252949606052   0.444293141469690   0.625966051770550   1.0000000
B2   B   0.722159913815001   0.944411653893958   0.625017627394622   1.0000000
B2   B   0.888774113943401   0.444396011415486   0.624947273171131   1.0000000
B2   B   0.055472426785857   0.444406036412066   0.125037110207058   1.0000000
B2   B   0.222151614187002   0.944415332844871   0.125023397077880   1.0000000
B2   B   0.555499376874320   0.944416355103828   0.125000362912544   1.0000000
B2   B   0.388771395005100   0.444338330126525   0.123309355511522   1.0000000
B2   B   0.888814730506109   0.944402150538419   0.125015463144724   1.0000000
B2   B   0.722031924813757   0.444369436337021   0.125037352418799   1.0000000
B2   B   0.222151614187002   0.611069614675467   0.624976602922120   1.0000000
B2   B   0.055482711405175   0.111075382601439   0.624982774826643   1.0000000
B2   B   0.555421395178878   0.611012891128780   0.625417997784787   1.0000000
B2   B   0.388809490685471   0.111097599120464   0.625167561656050   1.0000000
B2   B   0.888763043886854   0.611048188610098   0.624930249725624   1.0000000
B2   B   0.055470204090714   0.611069734053819   0.124993546470596   1.0000000
B2   B   0.722159913815001   0.111081593254376   0.625017627394622   1.0000000
B2   B   0.222136837465463   0.111084050365865   0.124829406887271   1.0000000
B2   B   0.388809490685471   0.611045224898349   0.124832438343949   1.0000000
B2   B   0.722031924813757   0.610995821810070   0.125037352418799   1.0000000
B2   B   0.555481335192345   0.111079996377691   0.125013595778313   1.0000000
B2   B   0.388809490685471   0.611045224898349   0.625167561656050   1.0000000
B2   B   0.888825636534722   0.111079484934033   0.124992419653424   1.0000000
B2   B   0.222155272931340   0.777744303132338   0.625009987789873   1.0000000
B2   B   0.055482711405175   0.277740662137071   0.624982774826643   1.0000000
B2   B   0.388771395005100   0.277766398211912   0.626690644488478   1.0000000
B2   B   0.555481335192345   0.777734672147991   0.624986404221687   1.0000000
B2   B   0.888774113943401   0.777711435861254   0.624947273171131   1.0000000
B2   B   0.722119497470257   0.277736244357106   0.624958224572892   1.0000000
B2   B   0.055470204090714   0.777733803370232   0.124993546470596   1.0000000
B2   B   0.388827947319388   0.777743560122694   0.125027204816952   1.0000000
B2   B   0.222150709691156   0.277742021512246   0.124427111033082   1.0000000
B2   B   0.722119497470257   0.777716586446486   0.125041775427107   1.0000000
B2   B   0.555421395178878   0.277741837383440   0.124582002215212   1.0000000
B2   B   0.888814730506109   0.277745913301025   0.125015463144724   1.0000000
B2   B   0.055472426785857   0.444406036412066   0.624962889792943   1.0000000
B2   B   0.222151614187002   0.944415332844871   0.624976602922120   1.0000000
B2   B   0.555499376874320   0.944416355103828   0.624999637087458   1.0000000
B2   B   0.388771395005100   0.444338330126525   0.626690644488478   1.0000000
B2   B   0.888814730506109   0.944402150538419   0.624984536855277   1.0000000
B2   B   0.055472426785857   0.944399723707122   0.125037110207058   1.0000000
B2   B   0.722031924813757   0.444369436337021   0.624962647581202   1.0000000
B2   B   0.388827947319388   0.944417720530028   0.125027204816952   1.0000000
B2   B   0.222136837465463   0.444386120432931   0.124829406887271   1.0000000
B2   B   0.222151614187002   0.611069614675467   0.125023397077880   1.0000000
B2   B   0.555252949606052   0.444293141469690   0.124033948229449   1.0000000
B2   B   0.722159913815001   0.944411653893958   0.124982372605379   1.0000000
B2   B   0.888774113943401   0.444396011415486   0.125052726828870   1.0000000
B2   B   0.055470204090714   0.611069734053819   0.625006453529401   1.0000000
B2   B   0.222136837465463   0.111084050365865   0.625170593112731   1.0000000
B2   B   0.722031924813757   0.610995821810070   0.624962647581202   1.0000000
B2   B   0.555481335192345   0.111079996377691   0.624986404221687   1.0000000
B2   B   0.888825636534722   0.111079484934033   0.625007580346577   1.0000000


