data_1
_audit_creation_method   'vasp2cif'
_cell_length_a    14.93631414619966
_cell_length_b    14.936314146199727
_cell_length_c    13.341276283792837
_cell_angle_alpha    90.0
_cell_angle_beta    90.0
_cell_angle_gamma    119.99999999999984

_symmetry_space_group_name_H-M    'P 1'
loop_
_atom_site_label
_atom_site_type_symbol
_atom_site_fract_x
_atom_site_fract_y
_atom_site_fract_z
_atom_site_occupancy
As2   As   0.488175735554395   0.410754534443861   0.375000000000000   1.0000000
N2   N   0.111115348930245   0.055538628665556   0.125134016078058   1.0000000
N2   N   0.611098593166978   0.555565350819352   0.125196521695050   1.0000000
N2   N   0.444442330079155   0.055535294803765   0.125157391659666   1.0000000
N2   N   0.944444843183037   0.555562951894279   0.125176485162068   1.0000000
N2   N   0.777792167037642   0.055562750185489   0.125089986798362   1.0000000
N2   N   0.111114841237733   0.722224087285530   0.624888936490186   1.0000000
N2   N   0.444442330079155   0.722240368608726   0.624842608340333   1.0000000
N2   N   0.277771031331472   0.222201918920651   0.624888587467894   1.0000000
N2   N   0.777772938213676   0.722211694018052   0.624739998382549   1.0000000
N2   N   0.611102283117895   0.222204170627218   0.624829975487086   1.0000000
N2   N   0.944462891062440   0.222239969048582   0.624881575103913   1.0000000
N2   N   0.277779651207022   0.722232125519673   0.125122996247431   1.0000000
N2   N   0.111130524347216   0.222231928840272   0.125151852623851   1.0000000
N2   N   0.444440150630431   0.222197273316569   0.125212106745414   1.0000000
N2   N   0.611102283117895   0.722231445824004   0.125170024512915   1.0000000
N2   N   0.944444843183037   0.722215224622094   0.125176485162068   1.0000000
N2   N   0.777785013396307   0.222231709401251   0.125124534162466   1.0000000
N2   N   0.111112812205821   0.888874995086745   0.624882941614349   1.0000000
N2   N   0.444446692773671   0.888890013053500   0.624887042809988   1.0000000
N2   N   0.277771031331472   0.388902445744148   0.624888587467894   1.0000000
N2   N   0.611098593166978   0.388866575680953   0.624803478304950   1.0000000
N2   N   0.777785013396307   0.888886637328385   0.624875465837534   1.0000000
N2   N   0.944451935972991   0.388907857689308   0.624864651042073   1.0000000
N2   N   0.111115348930245   0.388910053598017   0.125134016078058   1.0000000
N2   N   0.277779651207022   0.888880859020680   0.125122996247431   1.0000000
N2   N   0.611115304494079   0.888898486976868   0.125098016510542   1.0000000
N2   N   0.444404496774868   0.388868915054099   0.125321914823754   1.0000000
N2   N   0.944451935972991   0.888877411617013   0.125135348957926   1.0000000
N2   N   0.777772938213676   0.388894577528951   0.125260001617452   1.0000000
N2   N   0.277775418370595   0.555575269193416   0.624840975810823   1.0000000
N2   N   0.111115348930245   0.055538628665556   0.624865983921942   1.0000000
N2   N   0.611098593166978   0.555565350819352   0.624803478304950   1.0000000
N2   N   0.444442330079155   0.055535294803765   0.624842608340333   1.0000000
N2   N   0.944444843183037   0.555562951894279   0.624823514837932   1.0000000
N2   N   0.111112812205821   0.555571150452404   0.125117058385650   1.0000000
N2   N   0.777792167037642   0.055562750185489   0.624910013201639   1.0000000
N2   N   0.277775418370595   0.055533482510514   0.125159024189177   1.0000000
N2   N   0.444440150630431   0.555576210647199   0.125212106745414   1.0000000
N2   N   0.777761031862931   0.555547182598133   0.125348507654242   1.0000000
N2   N   0.611115304494079   0.055550150850539   0.125098016510542   1.0000000
N2   N   0.444440150630431   0.555576210647199   0.624787893254586   1.0000000
N2   N   0.944462891062440   0.055556255347194   0.125118424896086   1.0000000
N2   N   0.277779651207022   0.722232125519673   0.624877003752569   1.0000000
N2   N   0.111130524347216   0.222231928840272   0.624848147376150   1.0000000
N2   N   0.444440150630431   0.222197273316569   0.624787893254586   1.0000000
N2   N   0.611102283117895   0.722231445824004   0.624829975487086   1.0000000
N2   N   0.944444843183037   0.722215224622094   0.624823514837932   1.0000000
N2   N   0.777785013396307   0.222231709401251   0.624875465837534   1.0000000
N2   N   0.111114841237733   0.722224087285530   0.125111063509813   1.0000000
N2   N   0.444442330079155   0.722240368608726   0.125157391659666   1.0000000
N2   N   0.277771031331472   0.222201918920651   0.125111412532107   1.0000000
N2   N   0.777772938213676   0.722211694018052   0.125260001617452   1.0000000
N2   N   0.611102283117895   0.222204170627218   0.125170024512915   1.0000000
N2   N   0.944462891062440   0.222239969048582   0.125118424896086   1.0000000
N2   N   0.111115348930245   0.388910053598017   0.624865983921942   1.0000000
N2   N   0.277779651207022   0.888880859020680   0.624877003752569   1.0000000
N2   N   0.611115304494079   0.888898486976868   0.624901983489458   1.0000000
N2   N   0.444404496774868   0.388868915054099   0.624678085176246   1.0000000
N2   N   0.944451935972991   0.888877411617013   0.624864651042073   1.0000000
N2   N   0.111112812205821   0.888874995086745   0.125117058385650   1.0000000
N2   N   0.777772938213676   0.388894577528951   0.624739998382549   1.0000000
N2   N   0.444446692773671   0.888890013053500   0.125112957190013   1.0000000
N2   N   0.277771031331472   0.388902445744148   0.125111412532107   1.0000000
N2   N   0.277775418370595   0.555575269193416   0.125159024189177   1.0000000
N2   N   0.611098593166978   0.388866575680953   0.125196521695050   1.0000000
N2   N   0.777785013396307   0.888886637328385   0.125124534162466   1.0000000
N2   N   0.944451935972991   0.388907857689308   0.125135348957926   1.0000000
N2   N   0.111112812205821   0.555571150452404   0.624882941614349   1.0000000
N2   N   0.277775418370595   0.055533482510514   0.624840975810823   1.0000000
N2   N   0.777761031862931   0.555547182598133   0.624651492345759   1.0000000
N2   N   0.611115304494079   0.055550150850539   0.624901983489458   1.0000000
N2   N   0.944462891062440   0.055556255347194   0.624881575103913   1.0000000
N2   N   0.057348522839076   0.112275819811419   0.375000000000000   1.0000000
N2   N   0.554118926129422   0.618149429254953   0.375000000000000   1.0000000
N2   N   0.386979810048467   0.105868846249476   0.375000000000000   1.0000000
N2   N   0.884338437966171   0.608835885649756   0.375000000000000   1.0000000
N2   N   0.722801205865677   0.110651291731247   0.375000000000000   1.0000000
N2   N   0.055558921208508   0.777782806096920   0.875000000000000   1.0000000
N2   N   0.388901752635422   0.777781603029106   0.875000000000000   1.0000000
N2   N   0.222229026170233   0.277781179751784   0.875000000000000   1.0000000
N2   N   0.722227874356678   0.777781587978625   0.875000000000000   1.0000000
N2   N   0.555561708212098   0.277783469047375   0.875000000000000   1.0000000
N2   N   0.888896187721894   0.277779399568352   0.875000000000000   1.0000000
N2   N   0.219431442336349   0.776382387834842   0.375000000000000   1.0000000
N2   N   0.057348522839076   0.278406036360993   0.375000000000000   1.0000000
N2   N   0.392215271890809   0.273423795299003   0.375000000000000   1.0000000
N2   N   0.554795244462587   0.780793561351277   0.375000000000000   1.0000000
N2   N   0.886880073157387   0.777153850677050   0.375000000000000   1.0000000
N2   N   0.722150950910107   0.275824380243180   0.375000000000000   1.0000000
N2   N   0.055560121917721   0.944450738661867   0.875000000000000   1.0000000
N2   N   0.388901752635422   0.944453482939652   0.875000000000000   1.0000000
N2   N   0.222228265653789   0.444443182350551   0.875000000000000   1.0000000
N2   N   0.555559652079743   0.444446492706536   0.875000000000000   1.0000000
N2   N   0.722228130940649   0.944448049520042   0.875000000000000   1.0000000
N2   N   0.888893526462936   0.444442854004073   0.875000000000000   1.0000000
N2   N   0.055044892582921   0.444048167572939   0.375000000000000   1.0000000
N2   N   0.219932826773924   0.942394714164691   0.375000000000000   1.0000000
N2   N   0.554890369832278   0.944111851582803   0.375000000000000   1.0000000
N2   N   0.392215271890809   0.452124809925141   0.375000000000000   1.0000000
N2   N   0.889622604606982   0.945469756825758   0.375000000000000   1.0000000
N2   N   0.717779649419633   0.441501947147973   0.375000000000000   1.0000000
N2   N   0.222230067396941   0.611109283896612   0.875000000000000   1.0000000
N2   N   0.055561356817086   0.111114965151196   0.875000000000000   1.0000000
N2   N   0.555561708212098   0.611111572498059   0.875000000000000   1.0000000
N2   N   0.388900203072276   0.111122727950508   0.875000000000000   1.0000000
N2   N   0.888890299755995   0.611111816544668   0.875000000000000   1.0000000
N2   N   0.052434830128722   0.609733028797869   0.375000000000000   1.0000000
N2   N   0.722228130940649   0.111113414753942   0.875000000000000   1.0000000
N2   N   0.223412745655757   0.111411873240465   0.375000000000000   1.0000000
N2   N   0.386979810048467   0.614444297132335   0.375000000000000   1.0000000
N2   N   0.717779649419633   0.609611035604995   0.375000000000000   1.0000000
N2   N   0.554795244462587   0.107335016444645   0.375000000000000   1.0000000
N2   N   0.388900203072276   0.611110808455110   0.875000000000000   1.0000000
N2   N   0.890253162666446   0.111793247999894   0.375000000000000   1.0000000
N2   N   0.222230790439490   0.777782061886413   0.875000000000000   1.0000000
N2   N   0.055561356817086   0.277779724999226   0.875000000000000   1.0000000
N2   N   0.388898203437814   0.277785135753200   0.875000000000000   1.0000000
N2   N   0.555564407392763   0.777780949233898   0.875000000000000   1.0000000
N2   N   0.888893526462936   0.777784005792198   0.875000000000000   1.0000000
N2   N   0.722227874356678   0.277779619711388   0.875000000000000   1.0000000
N2   N   0.052434830128722   0.776035134664188   0.375000000000000   1.0000000
N2   N   0.386924490357981   0.778153665401367   0.375000000000000   1.0000000
N2   N   0.225815952415043   0.279574642874190   0.375000000000000   1.0000000
N2   N   0.722150950910107   0.779659904000262   0.375000000000000   1.0000000
N2   N   0.554118926129422   0.269302830207804   0.375000000000000   1.0000000
N2   N   0.889622604606982   0.277486181114559   0.375000000000000   1.0000000
N2   N   0.055560121917721   0.444442716589183   0.875000000000000   1.0000000
N2   N   0.222230067396941   0.944454116833666   0.875000000000000   1.0000000
N2   N   0.555563891172445   0.944448612252886   0.875000000000000   1.0000000
N2   N   0.388898203437814   0.444446401017951   0.875000000000000   1.0000000
N2   N   0.888896187721894   0.944450121486878   0.875000000000000   1.0000000
N2   N   0.055044892582921   0.944330058343310   0.375000000000000   1.0000000
N2   N   0.722224425208616   0.444444917939882   0.875000000000000   1.0000000
N2   N   0.386924490357981   0.942104158289949   0.375000000000000   1.0000000
N2   N   0.223412745655757   0.445334205748627   0.375000000000000   1.0000000
N2   N   0.219932826773924   0.610871445942567   0.375000000000000   1.0000000
N2   N   0.722801205865677   0.945483247467765   0.375000000000000   1.0000000
N2   N   0.886880073157387   0.443059555813673   0.375000000000000   1.0000000
N2   N   0.055558921208508   0.611109448444924   0.875000000000000   1.0000000
N2   N   0.222228265653789   0.111118416636573   0.875000000000000   1.0000000
N2   N   0.722224425208616   0.611112840602069   0.875000000000000   1.0000000
N2   N   0.555564407392763   0.111116791492202   0.875000000000000   1.0000000
N2   N   0.888896163468847   0.111114748401095   0.875000000000000   1.0000000
B2   B   0.111764046470490   0.055810700606095   0.375000000000000   1.0000000
B2   B   0.610142160891298   0.567444813886827   0.375000000000000   1.0000000
B2   B   0.443454754523828   0.051800117780483   0.375000000000000   1.0000000
B2   B   0.941493450116084   0.554120669615536   0.375000000000000   1.0000000
B2   B   0.779134408902515   0.056233871117925   0.375000000000000   1.0000000
B2   B   0.111120912667984   0.722227123000656   0.875000000000000   1.0000000
B2   B   0.444451140226688   0.722246728890288   0.875000000000000   1.0000000
B2   B   0.277740087577316   0.222196687159819   0.875000000000000   1.0000000
B2   B   0.777814173343150   0.722268210617417   0.875000000000000   1.0000000
B2   B   0.611134146492684   0.222198397275969   0.875000000000000   1.0000000
B2   B   0.944445123484375   0.222214565483231   0.875000000000000   1.0000000
B2   B   0.275586898065590   0.721828387532120   0.375000000000000   1.0000000
B2   B   0.113470971947242   0.223402152640285   0.375000000000000   1.0000000
B2   B   0.442930816422381   0.214307197019092   0.375000000000000   1.0000000
B2   B   0.611860067503917   0.728689660948242   0.375000000000000   1.0000000
B2   B   0.941493450116084   0.720706113833884   0.375000000000000   1.0000000
B2   B   0.778862993003746   0.221269149066544   0.375000000000000   1.0000000
B2   B   0.111113405196630   0.888892880734577   0.875000000000000   1.0000000
B2   B   0.444455631558406   0.888894482445868   0.875000000000000   1.0000000
B2   B   0.277740087577316   0.388876733750825   0.875000000000000   1.0000000
B2   B   0.611136141792821   0.388878343353449   0.875000000000000   1.0000000
B2   B   0.777801398227841   0.888926196602185   0.875000000000000   1.0000000
B2   B   0.944458652188327   0.388878877672704   0.875000000000000   1.0000000
B2   B   0.111764046470490   0.389286679197724   0.375000000000000   1.0000000
B2   B   0.275586898065590   0.887091843866799   0.375000000000000   1.0000000
B2   B   0.611646662588596   0.890953308364238   0.375000000000000   1.0000000
B2   B   0.943992091467312   0.889069509769592   0.375000000000000   1.0000000
B2   B   0.776429953760648   0.386502569895360   0.375000000000000   1.0000000
B2   B   0.277762871406289   0.555558692370198   0.875000000000000   1.0000000
B2   B   0.111092538219045   0.055547582055964   0.875000000000000   1.0000000
B2   B   0.611136141792821   0.555591131772702   0.875000000000000   1.0000000
B2   B   0.444451140226688   0.055537744669736   0.875000000000000   1.0000000
B2   B   0.944472065366743   0.555559743823909   0.875000000000000   1.0000000
B2   B   0.108926226013292   0.554958178314928   0.375000000000000   1.0000000
B2   B   0.777794157555460   0.055563745444398   0.875000000000000   1.0000000
B2   B   0.275985695027877   0.052876152668954   0.375000000000000   1.0000000
B2   B   0.442930816422381   0.561956952736625   0.375000000000000   1.0000000
B2   B   0.773649159569776   0.553491246451556   0.375000000000000   1.0000000
B2   B   0.611646662588596   0.054026687557688   0.375000000000000   1.0000000
B2   B   0.444436480765198   0.555575921655788   0.875000000000000   1.0000000
B2   B   0.945993978318716   0.056683223734465   0.375000000000000   1.0000000
B2   B   0.277780621246476   0.722228777059403   0.875000000000000   1.0000000
B2   B   0.111082439973787   0.222207886653558   0.875000000000000   1.0000000
B2   B   0.444436480765198   0.222193892442746   0.875000000000000   1.0000000
B2   B   0.611134146492684   0.722269082550042   0.875000000000000   1.0000000
B2   B   0.944472065366743   0.722245654876170   0.875000000000000   1.0000000
B2   B   0.777801398227841   0.222208534958986   0.875000000000000   1.0000000
B2   B   0.108272152696859   0.720802743015093   0.375000000000000   1.0000000
B2   B   0.443454754523828   0.724987970076682   0.375000000000000   1.0000000
B2   B   0.280030758564402   0.222861336747710   0.375000000000000   1.0000000
B2   B   0.776429953760648   0.723260717198616   0.375000000000000   1.0000000
B2   B   0.611860067503917   0.216503739889004   0.375000000000000   1.0000000
B2   B   0.945993978318716   0.222644087917587   0.375000000000000   1.0000000
B2   B   0.111092538219045   0.388878289496410   0.875000000000000   1.0000000
B2   B   0.277780621246476   0.888885177520402   0.875000000000000   1.0000000
B2   B   0.611129828518638   0.888914959182153   0.875000000000000   1.0000000
B2   B   0.444422114862836   0.388877724098083   0.875000000000000   1.0000000
B2   B   0.944458652188327   0.888913107848952   0.875000000000000   1.0000000
B2   B   0.108926226013292   0.887301381031695   0.375000000000000   1.0000000
B2   B   0.777814173343150   0.388879296059061   0.875000000000000   1.0000000
B2   B   0.443486072118352   0.888409702725841   0.375000000000000   1.0000000
B2   B   0.280030758564402   0.390502755150020   0.375000000000000   1.0000000
B2   B   0.275985695027877   0.556442875692259   0.375000000000000   1.0000000
B2   B   0.610142160891298   0.376030680337799   0.375000000000000   1.0000000
B2   B   0.778862993003746   0.890927177270530   0.375000000000000   1.0000000
B2   B   0.943992091467312   0.388255915031049   0.375000000000000   1.0000000
B2   B   0.111113405196630   0.555553857795381   0.875000000000000   1.0000000
B2   B   0.277762871406289   0.055537512369427   0.875000000000000   1.0000000
B2   B   0.777818958513860   0.555576145923598   0.875000000000000   1.0000000
B2   B   0.611129828518638   0.055548202669813   0.875000000000000   1.0000000
B2   B   0.944445123484375   0.055563891334479   0.875000000000000   1.0000000
B2   B   0.055538407048116   0.111083630953192   0.124926660052736   1.0000000
B2   B   0.555525883258432   0.611241319982661   0.124600198457651   1.0000000
B2   B   0.388803345234324   0.110930167385469   0.124850140693584   1.0000000
B2   B   0.889028654983006   0.611180994158174   0.124906410891120   1.0000000
B2   B   0.722239534105632   0.111086858641340   0.124884932878982   1.0000000
B2   B   0.055616113477974   0.777793755019203   0.625082620478682   1.0000000
B2   B   0.388847357303565   0.777811695004718   0.625090891376629   1.0000000
B2   B   0.222132806709505   0.277733070021421   0.625193433557775   1.0000000
B2   B   0.722274438969074   0.777880835330004   0.625172154546100   1.0000000
B2   B   0.555525883258432   0.277617896609106   0.625399801542349   1.0000000
B2   B   0.888930528625093   0.277787122913984   0.625090351288059   1.0000000
B2   B   0.222217942596016   0.777775637964676   0.124924191569918   1.0000000
B2   B   0.055538407048116   0.277788109428260   0.124926660052736   1.0000000
B2   B   0.388720296912272   0.277555452353235   0.124667832395634   1.0000000
B2   B   0.555531627681474   0.777868883640803   0.124844656099932   1.0000000
B2   B   0.888991042730370   0.777844687952244   0.124905163062559   1.0000000
B2   B   0.722274438969074   0.277726936972405   0.124827845453900   1.0000000
B2   B   0.055570937866628   0.944420219174483   0.625076404373718   1.0000000
B2   B   0.388847357303565   0.944368995632182   0.625090891376629   1.0000000
B2   B   0.222142934738376   0.444485224857648   0.625122593356129   1.0000000
B2   B   0.555605621436512   0.444469477384920   0.625560308655885   1.0000000
B2   B   0.722239534105632   0.944486008797628   0.625115067121017   1.0000000
B2   B   0.888991042730370   0.444479688111461   0.625094836937441   1.0000000
B2   B   0.055570937866628   0.444484052025473   0.124923595626282   1.0000000
B2   B   0.222192792907117   0.944365145260679   0.124922464710653   1.0000000
B2   B   0.555538158570808   0.944435745952068   0.124886902382431   1.0000000
B2   B   0.388720296912272   0.444498177892372   0.124667832395634   1.0000000
B2   B   0.888930528625093   0.944476739044445   0.124909648711941   1.0000000
B2   B   0.722356531712004   0.444467712899347   0.124720908809423   1.0000000
B2   B   0.222192792907117   0.611160980979774   0.625077535289348   1.0000000
B2   B   0.055538407048116   0.111083630953192   0.625073339947264   1.0000000
B2   B   0.555525883258432   0.611241319982661   0.625399801542349   1.0000000
B2   B   0.388803345234324   0.110930167385469   0.625149859306415   1.0000000
B2   B   0.889028654983006   0.611180994158174   0.625093589108879   1.0000000
B2   B   0.055616113477974   0.611155691792106   0.124917379521318   1.0000000
B2   B   0.722239534105632   0.111086858641340   0.625115067121017   1.0000000
B2   B   0.222142934738376   0.110991043214064   0.124877406643871   1.0000000
B2   B   0.388803345234324   0.611206511182198   0.124850140693584   1.0000000
B2   B   0.722356531712004   0.611222152145993   0.124720908809423   1.0000000
B2   B   0.555531627681474   0.110996077374006   0.124844656099932   1.0000000
B2   B   0.388803345234324   0.611206511182198   0.625149859306415   1.0000000
B2   B   0.888907271859839   0.111120302596591   0.124919249350690   1.0000000
B2   B   0.222217942596016   0.777775637964676   0.625075808430081   1.0000000
B2   B   0.055538407048116   0.277788109428260   0.625073339947264   1.0000000
B2   B   0.388720296912272   0.277555452353235   0.625332167604366   1.0000000
B2   B   0.555531627681474   0.777868883640803   0.625155343900068   1.0000000
B2   B   0.888991042730370   0.777844687952244   0.625094836937441   1.0000000
B2   B   0.722274438969074   0.277726936972405   0.625172154546100   1.0000000
B2   B   0.055616113477974   0.777793755019203   0.124917379521318   1.0000000
B2   B   0.388847357303565   0.777811695004718   0.124909108623371   1.0000000
B2   B   0.222132806709505   0.277733070021421   0.124806566442225   1.0000000
B2   B   0.722274438969074   0.777880835330004   0.124827845453900   1.0000000
B2   B   0.555525883258432   0.277617896609106   0.124600198457651   1.0000000
B2   B   0.888930528625093   0.277787122913984   0.124909648711941   1.0000000
B2   B   0.055570937866628   0.444484052025473   0.625076404373718   1.0000000
B2   B   0.222192792907117   0.944365145260679   0.625077535289348   1.0000000
B2   B   0.555538158570808   0.944435745952068   0.625113097617570   1.0000000
B2   B   0.388720296912272   0.444498177892372   0.625332167604366   1.0000000
B2   B   0.888930528625093   0.944476739044445   0.625090351288059   1.0000000
B2   B   0.055570937866628   0.944420219174483   0.124923595626282   1.0000000
B2   B   0.722356531712004   0.444467712899347   0.625279091190577   1.0000000
B2   B   0.388847357303565   0.944368995632182   0.124909108623371   1.0000000
B2   B   0.222142934738376   0.444485224857648   0.124877406643871   1.0000000
B2   B   0.222192792907117   0.611160980979774   0.124922464710653   1.0000000
B2   B   0.555605621436512   0.444469477384920   0.124439691344116   1.0000000
B2   B   0.722239534105632   0.944486008797628   0.124884932878982   1.0000000
B2   B   0.888991042730370   0.444479688111461   0.124905163062559   1.0000000
B2   B   0.055616113477974   0.611155691792106   0.625082620478682   1.0000000
B2   B   0.222142934738376   0.110991043214064   0.625122593356129   1.0000000
B2   B   0.722356531712004   0.611222152145993   0.625279091190577   1.0000000
B2   B   0.555531627681474   0.110996077374006   0.625155343900068   1.0000000
B2   B   0.888907271859839   0.111120302596591   0.625080750649310   1.0000000


