data_1
_audit_creation_method   'vasp2cif'
_cell_length_a    17.52789999999977
_cell_length_b    17.52789999999977
_cell_length_c    15.0
_cell_angle_alpha    90.0
_cell_angle_beta    90.0
_cell_angle_gamma    119.99999999999916

_symmetry_space_group_name_H-M    'P 1'
loop_
_atom_site_label
_atom_site_type_symbol
_atom_site_fract_x
_atom_site_fract_y
_atom_site_fract_z
_atom_site_occupancy
B2   B   0.905548644814074   0.953489977461366   0.111003250866659   1.0000000
B2   B   0.904295779124763   0.095706242071238   0.111006099552722   1.0000000
B2   B   0.903986180702363   0.238425326995480   0.111069009996416   1.0000000
B2   B   0.904506667678488   0.381392473811759   0.111006746722476   1.0000000
B2   B   0.905829454353556   0.524536455610529   0.111011075331328   1.0000000
B2   B   0.906512210162524   0.667736255116552   0.111070289025249   1.0000000
B2   B   0.906480739804386   0.810861413589110   0.111034381375869   1.0000000
B2   B   0.047768262171450   0.952233759024546   0.111018461622877   1.0000000
B2   B   0.046512043734638   0.094453376381932   0.111003250866659   1.0000000
B2   B   0.046049954422324   0.237571301093719   0.110991273049739   1.0000000
B2   B   0.046406050599474   0.380916577729321   0.110986693106385   1.0000000
B2   B   0.047513595719574   0.524115869525049   0.110995262514664   1.0000000
B2   B   0.048398782876544   0.667025871872519   0.111046629240343   1.0000000
B2   B   0.048412401530472   0.809736294296935   0.111052839813274   1.0000000
B2   B   0.190265726899073   0.951589619665544   0.111052839813274   1.0000000
B2   B   0.189140607606901   0.093521281391610   0.111034381375869   1.0000000
B2   B   0.187151446668842   0.235256072242106   0.110947778511009   1.0000000
B2   B   0.187732434109865   0.379862755283144   0.110938011115694   1.0000000
B2   B   0.189159489326157   0.523713707889788   0.111036247383402   1.0000000
B2   B   0.190644595978678   0.666690119375131   0.111078866687210   1.0000000
B2   B   0.190736866932590   0.809265154263415   0.111029227745829   1.0000000
B2   B   0.332976149324475   0.951603238319461   0.111046629240343   1.0000000
B2   B   0.332265766080442   0.093489811033468   0.111070289025249   1.0000000
B2   B   0.330248869352478   0.234188145678731   0.110970490939238   1.0000000
B2   B   0.326290800893165   0.375917750723869   0.110950883680983   1.0000000
B2   B   0.330422407441700   0.523464507116301   0.110994159631867   1.0000000
B2   B   0.333238699622622   0.666763321574395   0.111118794891712   1.0000000
B2   B   0.333311901821867   0.809357425217320   0.111078866687210   1.0000000
B2   B   0.475886151671948   0.952488425476427   0.110995262514664   1.0000000
B2   B   0.475465565586465   0.094172566842441   0.111011075331328   1.0000000
B2   B   0.474869791144206   0.235074669659021   0.110888036628099   1.0000000
B2   B   0.469830870939377   0.368765160850578   0.111343255051315   1.0000000
B2   B   0.476537514080688   0.669579613755298   0.110994159631867   1.0000000
B2   B   0.476288313307214   0.810842531869849   0.111036247383402   1.0000000
B2   B   0.619085443466686   0.953595970596526   0.110986693106385   1.0000000
B2   B   0.618609547384258   0.095495353517519   0.111006746722476   1.0000000
B2   B   0.618680757027286   0.237692170223495   0.110980410955886   1.0000000
B2   B   0.619673747790081   0.380328273405930   0.110863586609140   1.0000000
B2   B   0.631236860345425   0.530171150257621   0.111343255051315   1.0000000
B2   B   0.624084270472112   0.673711220303841   0.110950883680983   1.0000000
B2   B   0.620139265912872   0.812269587086142   0.110938011115694   1.0000000
B2   B   0.762430720102275   0.953952066773673   0.110991273049739   1.0000000
B2   B   0.761576694200526   0.096015840493635   0.111069009996416   1.0000000
B2   B   0.761521106136701   0.238480915059301   0.111078068784093   1.0000000
B2   B   0.762309850972517   0.381321264168714   0.110980410955886   1.0000000
B2   B   0.764927351536984   0.525132230052796   0.110888036628099   1.0000000
B2   B   0.765813875517276   0.669753151844536   0.110970490939238   1.0000000
B2   B   0.764745948953900   0.812850574527162   0.110947778511009   1.0000000
N2   N   0.952891389155252   0.905472460556681   0.111004830809698   1.0000000
N2   N   0.951971301374400   0.048030100543609   0.110982751186804   1.0000000
N2   N   0.951363272811511   0.190643877011399   0.111011455426772   1.0000000
N2   N   0.951508621546898   0.333540657493508   0.111002382108348   1.0000000
N2   N   0.952386954348608   0.476523401799572   0.110967737216518   1.0000000
N2   N   0.953076885914800   0.619516477037548   0.111041093828326   1.0000000
N2   N   0.953218946723089   0.762496366942801   0.111063426102200   1.0000000
N2   N   0.095360065301094   0.904641336616913   0.111015149459995   1.0000000
N2   N   0.094528941361319   0.047110012762767   0.111004830809698   1.0000000
N2   N   0.093149370247432   0.189222678074846   0.110973897765643   1.0000000
N2   N   0.093385386497167   0.332740512183808   0.110964605972952   1.0000000
N2   N   0.094369973959747   0.476073182628064   0.110978036413255   1.0000000
N2   N   0.095487152855025   0.619150058778842   0.111012680901592   1.0000000
N2   N   0.095674088365518   0.761959094278073   0.111024635517065   1.0000000
N2   N   0.238042307639930   0.904327313552477   0.111024635517065   1.0000000
N2   N   0.237505034975198   0.046782455194918   0.111063426102200   1.0000000
N2   N   0.236188401215945   0.188758016141426   0.110955940604808   1.0000000
N2   N   0.233451055402616   0.329930266434817   0.110859740470167   1.0000000
N2   N   0.235901647362118   0.475340689913112   0.110948448088459   1.0000000
N2   N   0.238074530961614   0.618872676135085   0.111090832963013   1.0000000
N2   N   0.238279912570962   0.761721489347048   0.111042825614159   1.0000000
N2   N   0.380851343139153   0.904514249062972   0.111012680901592   1.0000000
N2   N   0.380484924880467   0.046924516003191   0.111041093828326   1.0000000
N2   N   0.380000269609170   0.189213052022811   0.110963849737554   1.0000000
N2   N   0.377797872441874   0.330861660245038   0.111043196578869   1.0000000
N2   N   0.371015438043854   0.469534554855774   0.110930804982976   1.0000000
N2   N   0.381200818846853   0.618800583071150   0.111096253944556   1.0000000
N2   N   0.381128725782924   0.761926870956390   0.111090832963013   1.0000000
N2   N   0.523928219288926   0.905631427958246   0.110978036413255   1.0000000
N2   N   0.523478000117429   0.047614447569404   0.110967737216518   1.0000000
N2   N   0.523358635169187   0.189689323416226   0.110948907097402   1.0000000
N2   N   0.523748739032320   0.331909390979566   0.110790830488886   1.0000000
N2   N   0.530466847061227   0.628985963874145   0.110930804982976   1.0000000
N2   N   0.524660712003881   0.764099754555883   0.110948448088459   1.0000000
N2   N   0.667260889733188   0.906616015420827   0.110964605972952   1.0000000
N2   N   0.666460744423488   0.048492780371103   0.111002382108348   1.0000000
N2   N   0.666240960135191   0.190819310616276   0.111024463017425   1.0000000
N2   N   0.666509060513510   0.333492341403483   0.110921447858302   1.0000000
N2   N   0.668092010937423   0.476252662884677   0.110790830488886   1.0000000
N2   N   0.669139741671967   0.622203529476132   0.111043196578869   1.0000000
N2   N   0.670071135482184   0.766550346515385   0.110859740470167   1.0000000
N2   N   0.810778723843152   0.906852031670560   0.110973897765643   1.0000000
N2   N   0.809357524906598   0.048638129106499   0.111011455426772   1.0000000
N2   N   0.808937510668094   0.191063891249904   0.111098984778492   1.0000000
N2   N   0.809182091301725   0.333760441781792   0.111024463017425   1.0000000
N2   N   0.810312078501772   0.476642766747823   0.110948907097402   1.0000000
N2   N   0.810788349895188   0.620001132308833   0.110963849737554   1.0000000
N2   N   0.811243385776565   0.763813000702059   0.110955940604808   1.0000000
As2   As   0.488443197018286   0.511558824178724   0.112677726191237   1.0000000


