data_1
_audit_creation_method   'vasp2cif'
_cell_length_a    17.52789999999977
_cell_length_b    17.52789999999977
_cell_length_c    15.0
_cell_angle_alpha    90.0
_cell_angle_beta    90.0
_cell_angle_gamma    119.99999999999916

_symmetry_space_group_name_H-M    'P 1'
loop_
_atom_site_label
_atom_site_type_symbol
_atom_site_fract_x
_atom_site_fract_y
_atom_site_fract_z
_atom_site_occupancy
B2   B   0.905653040518533   0.953846263555335   0.110874149310775   1.0000000
B2   B   0.904920196348600   0.095552290462190   0.110858140296308   1.0000000
B2   B   0.905084454165916   0.237703733597185   0.110879668552127   1.0000000
B2   B   0.906230717835643   0.380454199567862   0.110865725967702   1.0000000
B2   B   0.910606923581079   0.524572767665596   0.111102573796468   1.0000000
B2   B   0.910323019565799   0.671079757098745   0.111087390203853   1.0000000
B2   B   0.907918299543879   0.812897677575298   0.111016210819376   1.0000000
B2   B   0.048186073687693   0.952925608339885   0.110851390210373   1.0000000
B2   B   0.047091210524484   0.095048281922679   0.110855980977687   1.0000000
B2   B   0.046905670110261   0.237703733597185   0.110879668552127   1.0000000
B2   B   0.047528293819125   0.380771908515239   0.110814351985923   1.0000000
B2   B   0.049388522317256   0.524261410157895   0.110800715326822   1.0000000
B2   B   0.049665023421054   0.667744010801097   0.110866761113251   1.0000000
B2   B   0.049788840864839   0.811121731570459   0.110843455712441   1.0000000
B2   B   0.190219230313685   0.951620055207989   0.110897081896782   1.0000000
B2   B   0.188437284912998   0.093132782729731   0.110829579660447   1.0000000
B2   B   0.188180120809602   0.236578295222082   0.110830171768826   1.0000000
B2   B   0.188509872411226   0.380454199567862   0.110865725967702   1.0000000
B2   B   0.189157566962634   0.524261410157895   0.110800715326822   1.0000000
B2   B   0.190776482284782   0.667268285447569   0.110882261020807   1.0000000
B2   B   0.190978031722224   0.809700879326765   0.110917689370227   1.0000000
B2   B   0.332732915966131   0.951181152808262   0.110928948946388   1.0000000
B2   B   0.330852551510420   0.091690642387730   0.110801289008959   1.0000000
B2   B   0.327720040202944   0.232724213485756   0.110870086400702   1.0000000
B2   B   0.329075264081857   0.378683205023254   0.111223882838475   1.0000000
B2   B   0.328252234763510   0.524572767665596   0.111102573796468   1.0000000
B2   B   0.332363666503048   0.667744010801097   0.110866761113251   1.0000000
B2   B   0.333007526727531   0.809700879326765   0.110917689370227   1.0000000
B2   B   0.475685504017308   0.951620055207989   0.110897081896782   1.0000000
B2   B   0.475124481557319   0.091690642387730   0.110801289008959   1.0000000
B2   B   0.471320898120744   0.228355405561501   0.111066481803856   1.0000000
B2   B   0.465473490946262   0.361643057449644   0.112124480096422   1.0000000
B2   B   0.465032931192778   0.532331907845914   0.111610705328637   1.0000000
B2   B   0.475043128211939   0.671079757098745   0.111087390203853   1.0000000
B2   B   0.475617569828631   0.811121731570459   0.110843455712441   1.0000000
B2   B   0.619024213775189   0.952925608339885   0.110851390210373   1.0000000
B2   B   0.618981888495741   0.093132782729731   0.110829579660447   1.0000000
B2   B   0.619290563962828   0.232724213485756   0.110870086400702   1.0000000
B2   B   0.610455957183370   0.361643057449644   0.112124480096422   1.0000000
B2   B   0.627988071924111   0.541689753169216   0.111721982989836   1.0000000
B2   B   0.620764679922744   0.674046110363261   0.111571157351423   1.0000000
B2   B   0.619265768710420   0.812897677575298   0.111016210819376   1.0000000
B2   B   0.762479613715802   0.953846263555335   0.110874149310775   1.0000000
B2   B   0.762243462077209   0.095048281922679   0.110855980977687   1.0000000
B2   B   0.762684565091473   0.236578295222082   0.110830171768826   1.0000000
B2   B   0.763894331621391   0.378683205023254   0.111223882838475   1.0000000
B2   B   0.781585367332142   0.532331907845914   0.111610705328637   1.0000000
B2   B   0.767567821119524   0.674046110363261   0.111571157351423   1.0000000
B2   B   0.763718944761154   0.813151498843307   0.111237293325533   1.0000000
N2   N   0.953848144256156   0.906921493344685   0.110840923438457   1.0000000
N2   N   0.952498917548160   0.048292466004230   0.110810624844417   1.0000000
N2   N   0.952289405880260   0.190289617230480   0.110888430026679   1.0000000
N2   N   0.952864100924007   0.332699435429935   0.110829286394071   1.0000000
N2   N   0.955469437715582   0.475817286092991   0.110843648665070   1.0000000
N2   N   0.955359408175328   0.620410192959778   0.110956817356688   1.0000000
N2   N   0.955681647709593   0.765205658866544   0.110874011830152   1.0000000
N2   N   0.095860351515848   0.905423015926467   0.110843459842837   1.0000000
N2   N   0.094254393358818   0.047150814596465   0.110862054947193   1.0000000
N2   N   0.093812019486606   0.189789706542254   0.110852223774618   1.0000000
N2   N   0.094122817479936   0.332699435429935   0.110829286394071   1.0000000
N2   N   0.095109253663963   0.475932735909920   0.110741592291829   1.0000000
N2   N   0.096236254091506   0.619467069667194   0.110829769626725   1.0000000
N2   N   0.096436630464152   0.762682785775460   0.110828306689245   1.0000000
N2   N   0.237949756362800   0.904320947299333   0.110930005479355   1.0000000
N2   N   0.236399745277334   0.045814058629709   0.110849102598540   1.0000000
N2   N   0.234023405374471   0.187284797096205   0.110728248250216   1.0000000
N2   N   0.234948822112846   0.331833543181032   0.110880993510951   1.0000000
N2   N   0.234635331351424   0.475817286092991   0.110843648665070   1.0000000
N2   N   0.237516586992691   0.619467069667194   0.110829769626725   1.0000000
N2   N   0.238218646821894   0.762151522226785   0.110931646838972   1.0000000
N2   N   0.380656962353522   0.904320947299333   0.110930005479355   1.0000000
N2   N   0.379912462809250   0.045537442645523   0.110822492734966   1.0000000
N2   N   0.376886595063003   0.185601870083465   0.110759765446561   1.0000000
N2   N   0.372493800070002   0.326609106701809   0.111292160866104   1.0000000
N2   N   0.372735152231877   0.475707165760959   0.111458691839358   1.0000000
N2   N   0.379338267757434   0.620410192959778   0.110956817356688   1.0000000
N2   N   0.380531926728311   0.762682785775460   0.110828306689245   1.0000000
N2   N   0.523848435827615   0.905423015926467   0.110843459842837   1.0000000
N2   N   0.523701796325381   0.045814058629709   0.110849102598540   1.0000000
N2   N   0.523002757993453   0.185601870083465   0.110759765446561   1.0000000
N2   N   0.517838555714660   0.321389628456314   0.111828053490897   1.0000000
N2   N   0.523337885405177   0.625602477144758   0.111452533890704   1.0000000
N2   N   0.523811494129957   0.765205658866544   0.110874011830152   1.0000000
N2   N   0.667360832061528   0.906921493344685   0.110840923438457   1.0000000
N2   N   0.667183904210617   0.047150814596465   0.110862054947193   1.0000000
N2   N   0.667548874694732   0.187284797096205   0.110728248250216   1.0000000
N2   N   0.668402789604813   0.326609106701809   0.111292160866104   1.0000000
N2   N   0.673987748682636   0.633688014393296   0.111775213580685   1.0000000
N2   N   0.668204260707410   0.767556822544189   0.111313351251971   1.0000000
N2   N   0.810796135482554   0.907304787991101   0.110950494909973   1.0000000
N2   N   0.810082742986067   0.048292466004230   0.110810624844417   1.0000000
N2   N   0.810265170029643   0.189789706542254   0.110852223774618   1.0000000
N2   N   0.811172204042180   0.331833543181032   0.110880993510951   1.0000000
N2   N   0.817259496503082   0.475707165760959   0.111458691839358   1.0000000
N2   N   0.816552074712580   0.625602477144758   0.111452533890704   1.0000000
N2   N   0.813640044809793   0.767556822544189   0.111313351251971   1.0000000
S2   S   0.518277215779590   0.474912606774559   0.111500181623651   1.0000000
S2   S   0.670922873967990   0.474912606774559   0.111500181623651   1.0000000


