data_1
_audit_creation_method   'vasp2cif'
_cell_length_a    14.93631414619966
_cell_length_b    14.936314146199727
_cell_length_c    13.341276283792837
_cell_angle_alpha    90.0
_cell_angle_beta    90.0
_cell_angle_gamma    119.99999999999984

_symmetry_space_group_name_H-M    'P 1'
loop_
_atom_site_label
_atom_site_type_symbol
_atom_site_fract_x
_atom_site_fract_y
_atom_site_fract_z
_atom_site_occupancy
N2   N   0.111106509938837   0.055551225192725   0.124981060838104   1.0000000
N2   N   0.611107531558305   0.555548396449939   0.125081911623233   1.0000000
N2   N   0.444443879339162   0.055554826422547   0.125007569458386   1.0000000
N2   N   0.944445173577454   0.555556120660837   0.125007569458386   1.0000000
N2   N   0.777776689100611   0.055555011216973   0.124979410609839   1.0000000
N2   N   0.111111218141059   0.722222275737194   0.625002231323467   1.0000000
N2   N   0.444443879339162   0.722222386249951   0.624992430541614   1.0000000
N2   N   0.277773360078086   0.222215728603940   0.625023875057635   1.0000000
N2   N   0.777784271396060   0.722226639921914   0.625023875057635   1.0000000
N2   N   0.611109035192525   0.222215728603940   0.625023875057635   1.0000000
N2   N   0.944444988783027   0.222223310899389   0.625020589390161   1.0000000
N2   N   0.277777724262806   0.722222275737194   0.124997768676533   1.0000000
N2   N   0.111110175461851   0.222221754397590   0.124981171984604   1.0000000
N2   N   0.444448487446291   0.222230308225918   0.125061149234993   1.0000000
N2   N   0.611109035192525   0.722226639921914   0.124976124942365   1.0000000
N2   N   0.944445173577454   0.722222386249951   0.125007569458386   1.0000000
N2   N   0.777778245602410   0.222221754397590   0.124981171984604   1.0000000
N2   N   0.111110843504562   0.888889156495439   0.624998692633057   1.0000000
N2   N   0.444444979657548   0.888889156495439   0.624998692633057   1.0000000
N2   N   0.277773360078086   0.388890964807475   0.625023875057635   1.0000000
N2   N   0.611107531558305   0.388892468441695   0.624918088376768   1.0000000
N2   N   0.777778245602410   0.888889824538148   0.625018828015396   1.0000000
N2   N   0.944448774807275   0.388888618079441   0.625018939161896   1.0000000
N2   N   0.111106509938837   0.388888618079441   0.124981060838104   1.0000000
N2   N   0.277777724262806   0.888888781858940   0.124997768676533   1.0000000
N2   N   0.611111381920559   0.888893490061163   0.124981060838104   1.0000000
N2   N   0.444451603550061   0.388892468441695   0.125081911623233   1.0000000
N2   N   0.944448774807275   0.888893490061163   0.124981060838104   1.0000000
N2   N   0.777784271396060   0.388890964807475   0.124976124942365   1.0000000
N2   N   0.277777613750049   0.555556120660837   0.624992430541614   1.0000000
N2   N   0.111106509938837   0.055551225192725   0.625018939161896   1.0000000
N2   N   0.611107531558305   0.555548396449939   0.624918088376768   1.0000000
N2   N   0.444443879339162   0.055554826422547   0.624992430541614   1.0000000
N2   N   0.944445173577454   0.555556120660837   0.624992430541614   1.0000000
N2   N   0.111110843504562   0.555555020342452   0.125001307366943   1.0000000
N2   N   0.777776689100611   0.055555011216973   0.625020589390161   1.0000000
N2   N   0.277777613750049   0.055554826422547   0.125007569458386   1.0000000
N2   N   0.444448487446291   0.555551512553709   0.125061149234993   1.0000000
N2   N   0.777769691774082   0.555551512553709   0.125061149234993   1.0000000
N2   N   0.611111381920559   0.055551225192725   0.124981060838104   1.0000000
N2   N   0.444448487446291   0.555551512553709   0.624938850765007   1.0000000
N2   N   0.944444988783027   0.055555011216973   0.124979410609839   1.0000000
N2   N   0.277777724262806   0.722222275737194   0.625002231323467   1.0000000
N2   N   0.111110175461851   0.222221754397590   0.625018828015396   1.0000000
N2   N   0.444448487446291   0.222230308225918   0.624938850765007   1.0000000
N2   N   0.611109035192525   0.722226639921914   0.625023875057635   1.0000000
N2   N   0.944445173577454   0.722222386249951   0.624992430541614   1.0000000
N2   N   0.777778245602410   0.222221754397590   0.625018828015396   1.0000000
N2   N   0.111111218141059   0.722222275737194   0.124997768676533   1.0000000
N2   N   0.444443879339162   0.722222386249951   0.125007569458386   1.0000000
N2   N   0.277773360078086   0.222215728603940   0.124976124942365   1.0000000
N2   N   0.777784271396060   0.722226639921914   0.124976124942365   1.0000000
N2   N   0.611109035192525   0.222215728603940   0.124976124942365   1.0000000
N2   N   0.944444988783027   0.222223310899389   0.124979410609839   1.0000000
N2   N   0.111106509938837   0.388888618079441   0.625018939161896   1.0000000
N2   N   0.277777724262806   0.888888781858940   0.625002231323467   1.0000000
N2   N   0.611111381920559   0.888893490061163   0.625018939161896   1.0000000
N2   N   0.444451603550061   0.388892468441695   0.624918088376768   1.0000000
N2   N   0.944448774807275   0.888893490061163   0.625018939161896   1.0000000
N2   N   0.111110843504562   0.888889156495439   0.125001307366943   1.0000000
N2   N   0.777784271396060   0.388890964807475   0.625023875057635   1.0000000
N2   N   0.444444979657548   0.888889156495439   0.125001307366943   1.0000000
N2   N   0.277773360078086   0.388890964807475   0.124976124942365   1.0000000
N2   N   0.277777613750049   0.555556120660837   0.125007569458386   1.0000000
N2   N   0.611107531558305   0.388892468441695   0.125081911623233   1.0000000
N2   N   0.777778245602410   0.888889824538148   0.124981171984604   1.0000000
N2   N   0.944448774807275   0.388888618079441   0.124981060838104   1.0000000
N2   N   0.111110843504562   0.555555020342452   0.624998692633057   1.0000000
N2   N   0.277777613750049   0.055554826422547   0.624992430541614   1.0000000
N2   N   0.777769691774082   0.555551512553709   0.624938850765007   1.0000000
N2   N   0.611111381920559   0.055551225192725   0.625018939161896   1.0000000
N2   N   0.944444988783027   0.055555011216973   0.625020589390161   1.0000000
N2   N   0.054895322976580   0.110675290497913   0.375000000000000   1.0000000
N2   N   0.556580254926795   0.616416362205932   0.375000000000000   1.0000000
N2   N   0.388644277101331   0.110621887536005   0.375000000000000   1.0000000
N2   N   0.889378112463995   0.611355722898669   0.375000000000000   1.0000000
N2   N   0.722446634187998   0.110675290497913   0.375000000000000   1.0000000
N2   N   0.055554446846655   0.777778716958477   0.875000000000000   1.0000000
N2   N   0.388890936778487   0.777778716958477   0.875000000000000   1.0000000
N2   N   0.222220484550728   0.277776908942032   0.875000000000000   1.0000000
N2   N   0.722223091057968   0.777779515449272   0.875000000000000   1.0000000
N2   N   0.555556020267413   0.277777801325994   0.875000000000000   1.0000000
N2   N   0.888890470207794   0.277778744343443   0.875000000000000   1.0000000
N2   N   0.222222222222221   0.777777777777779   0.375000000000000   1.0000000
N2   N   0.054895322976580   0.277553365812002   0.375000000000000   1.0000000
N2   N   0.383583637794068   0.273497226054199   0.375000000000000   1.0000000
N2   N   0.555496511883430   0.779835734701525   0.375000000000000   1.0000000
N2   N   0.891005889484760   0.779835734701525   0.375000000000000   1.0000000
N2   N   0.723307664521438   0.276692335478562   0.375000000000000   1.0000000
N2   N   0.055555464810512   0.944444535189488   0.875000000000000   1.0000000
N2   N   0.388890936778487   0.944445553153345   0.875000000000000   1.0000000
N2   N   0.222219718291634   0.444444064476636   0.875000000000000   1.0000000
N2   N   0.555555555555557   0.444444444444443   0.875000000000000   1.0000000
N2   N   0.722221255656558   0.944445059197687   0.875000000000000   1.0000000
N2   N   0.888891012851667   0.444444064476636   0.875000000000000   1.0000000
N2   N   0.055657904553422   0.444649142440172   0.375000000000000   1.0000000
N2   N   0.222142961165090   0.944110374901209   0.375000000000000   1.0000000
N2   N   0.555350857559828   0.944342095446579   0.375000000000000   1.0000000
N2   N   0.383583637794068   0.443419745073204   0.375000000000000   1.0000000
N2   N   0.889324709502087   0.945104677023420   0.375000000000000   1.0000000
N2   N   0.726502773945801   0.443419745073204   0.375000000000000   1.0000000
N2   N   0.222221283041523   0.611109063221514   0.875000000000000   1.0000000
N2   N   0.055554940802313   0.111109529792206   0.875000000000000   1.0000000
N2   N   0.555556020267413   0.611111552274754   0.875000000000000   1.0000000
N2   N   0.388889659546813   0.111112652426969   0.875000000000000   1.0000000
N2   N   0.888887347573031   0.611110340453187   0.875000000000000   1.0000000
N2   N   0.055889625098791   0.611365919597218   0.375000000000000   1.0000000
N2   N   0.722221255656558   0.111109529792206   0.875000000000000   1.0000000
N2   N   0.220164265298474   0.108994110515239   0.375000000000000   1.0000000
N2   N   0.388644277101331   0.611355722898669   0.375000000000000   1.0000000
N2   N   0.726502773945801   0.616416362205932   0.375000000000000   1.0000000
N2   N   0.555496511883430   0.108994110515239   0.375000000000000   1.0000000
N2   N   0.388889659546813   0.611110340453187   0.875000000000000   1.0000000
N2   N   0.888888888888886   0.111111111111114   0.375000000000000   1.0000000
N2   N   0.222222222222221   0.777777777777779   0.875000000000000   1.0000000
N2   N   0.055554940802313   0.277778744343443   0.875000000000000   1.0000000
N2   N   0.388888447725246   0.277777801325994   0.875000000000000   1.0000000
N2   N   0.555555935523364   0.777780281708366   0.875000000000000   1.0000000
N2   N   0.888891012851667   0.777780281708366   0.875000000000000   1.0000000
N2   N   0.722223091057968   0.277776908942032   0.875000000000000   1.0000000
N2   N   0.055889625098791   0.777857038834909   0.375000000000000   1.0000000
N2   N   0.388634080402783   0.777857038834909   0.375000000000000   1.0000000
N2   N   0.220051337623789   0.276692335478563   0.375000000000000   1.0000000
N2   N   0.723307664521438   0.779948662376210   0.375000000000000   1.0000000
N2   N   0.556580254926795   0.273497226054199   0.375000000000000   1.0000000
N2   N   0.889324709502087   0.277553365812002   0.375000000000000   1.0000000
N2   N   0.055555464810512   0.444444262954353   0.875000000000000   1.0000000
N2   N   0.222221283041523   0.944445553153345   0.875000000000000   1.0000000
N2   N   0.555555737045647   0.944444535189488   0.875000000000000   1.0000000
N2   N   0.388888447725246   0.444443979732588   0.875000000000000   1.0000000
N2   N   0.888890470207794   0.944445059197687   0.875000000000000   1.0000000
N2   N   0.055657904553422   0.944342095446579   0.375000000000000   1.0000000
N2   N   0.722222198674006   0.444443979732588   0.875000000000000   1.0000000
N2   N   0.388634080402783   0.944110374901209   0.375000000000000   1.0000000
N2   N   0.220164265298474   0.444503488116571   0.375000000000000   1.0000000
N2   N   0.222142961165090   0.611365919597218   0.375000000000000   1.0000000
N2   N   0.722446634187998   0.945104677023420   0.375000000000000   1.0000000
N2   N   0.891005889484760   0.444503488116571   0.375000000000000   1.0000000
N2   N   0.055554446846655   0.611109063221514   0.875000000000000   1.0000000
N2   N   0.222219718291634   0.111108987148333   0.875000000000000   1.0000000
N2   N   0.722222198674006   0.611111552274754   0.875000000000000   1.0000000
N2   N   0.555555935523364   0.111108987148333   0.875000000000000   1.0000000
N2   N   0.888888888888886   0.111111111111114   0.875000000000000   1.0000000
B2   B   0.109970716500855   0.054676916708841   0.375000000000000   1.0000000
B2   B   0.616834418182545   0.567002169698419   0.375000000000000   1.0000000
B2   B   0.444365157998265   0.054979601583796   0.375000000000000   1.0000000
B2   B   0.945020398416203   0.555634842001735   0.375000000000000   1.0000000
B2   B   0.778062400240637   0.055697866786986   0.375000000000000   1.0000000
B2   B   0.111110015931915   0.722221674632622   0.875000000000000   1.0000000
B2   B   0.444446888228036   0.722224826844467   0.875000000000000   1.0000000
B2   B   0.277770480254642   0.222218394818475   0.875000000000000   1.0000000
B2   B   0.777781605181525   0.722229519745358   0.875000000000000   1.0000000
B2   B   0.611114581230504   0.222218394818475   0.875000000000000   1.0000000
B2   B   0.944443517189813   0.222220367712960   0.875000000000000   1.0000000
B2   B   0.277677314806462   0.722322685193538   0.375000000000000   1.0000000
B2   B   0.109694694048462   0.221514013690895   0.375000000000000   1.0000000
B2   B   0.444172390909320   0.221678115151975   0.375000000000000   1.0000000
B2   B   0.611982054325332   0.726199730058010   0.375000000000000   1.0000000
B2   B   0.945020398416203   0.722718889747804   0.375000000000000   1.0000000
B2   B   0.778485986309105   0.221514013690895   0.375000000000000   1.0000000
B2   B   0.111109477146507   0.888890522853493   0.875000000000000   1.0000000
B2   B   0.444447712373657   0.888890522853493   0.875000000000000   1.0000000
B2   B   0.277770480254642   0.388885418769496   0.875000000000000   1.0000000
B2   B   0.611117801062315   0.388882198937685   0.875000000000000   1.0000000
B2   B   0.777780405977803   0.888894145288935   0.875000000000000   1.0000000
B2   B   0.944444889362804   0.388885502610647   0.875000000000000   1.0000000
B2   B   0.109970716500855   0.388627133125342   0.375000000000000   1.0000000
B2   B   0.277677314806462   0.888687962946252   0.375000000000000   1.0000000
B2   B   0.611372866874658   0.890029283499145   0.375000000000000   1.0000000
B2   B   0.432997830301581   0.383165581817455   0.375000000000000   1.0000000
B2   B   0.945323083291159   0.890029283499145   0.375000000000000   1.0000000
B2   B   0.780884342399350   0.388017945674668   0.375000000000000   1.0000000
B2   B   0.277775173155533   0.555553111771965   0.875000000000000   1.0000000
B2   B   0.111107279914515   0.055555110637196   0.875000000000000   1.0000000
B2   B   0.611117801062315   0.555568935457958   0.875000000000000   1.0000000
B2   B   0.444446888228036   0.055555394716904   0.875000000000000   1.0000000
B2   B   0.944444605283096   0.555553111771965   0.875000000000000   1.0000000
B2   B   0.111176182996847   0.555685699327023   0.375000000000000   1.0000000
B2   B   0.777779632287040   0.055556482810188   0.875000000000000   1.0000000
B2   B   0.277281110252195   0.054979601583796   0.375000000000000   1.0000000
B2   B   0.444172390909320   0.555827609090680   0.375000000000000   1.0000000
B2   B   0.778321884848025   0.555827609090680   0.375000000000000   1.0000000
B2   B   0.611372866874658   0.054676916708841   0.375000000000000   1.0000000
B2   B   0.444443378834788   0.555556621165212   0.875000000000000   1.0000000
B2   B   0.944302133213014   0.055697866786986   0.375000000000000   1.0000000
B2   B   0.277778325367378   0.722221674632622   0.875000000000000   1.0000000
B2   B   0.111105854711065   0.222219594022197   0.875000000000000   1.0000000
B2   B   0.444443378834788   0.222220091002912   0.875000000000000   1.0000000
B2   B   0.611114581230504   0.722229519745358   0.875000000000000   1.0000000
B2   B   0.944444605283096   0.722224826844467   0.875000000000000   1.0000000
B2   B   0.777780405977803   0.222219594022197   0.875000000000000   1.0000000
B2   B   0.111312037053748   0.722322685193538   0.375000000000000   1.0000000
B2   B   0.444365157998265   0.722718889747804   0.375000000000000   1.0000000
B2   B   0.273800269941990   0.219115657600650   0.375000000000000   1.0000000
B2   B   0.780884342399350   0.726199730058010   0.375000000000000   1.0000000
B2   B   0.611982054325332   0.219115657600650   0.375000000000000   1.0000000
B2   B   0.944302133213014   0.221937599759363   0.375000000000000   1.0000000
B2   B   0.111107279914515   0.388885502610647   0.875000000000000   1.0000000
B2   B   0.277778325367378   0.888889984068085   0.875000000000000   1.0000000
B2   B   0.611114497389352   0.888892720085485   0.875000000000000   1.0000000
B2   B   0.444431064542042   0.388882198937685   0.875000000000000   1.0000000
B2   B   0.944444889362804   0.888892720085485   0.875000000000000   1.0000000
B2   B   0.111176182996847   0.888823817003153   0.375000000000000   1.0000000
B2   B   0.777781605181525   0.388885418769496   0.875000000000000   1.0000000
B2   B   0.444314300672977   0.888823817003153   0.375000000000000   1.0000000
B2   B   0.273800269941990   0.388017945674668   0.375000000000000   1.0000000
B2   B   0.277281110252195   0.555634842001735   0.375000000000000   1.0000000
B2   B   0.616834418182545   0.383165581817455   0.375000000000000   1.0000000
B2   B   0.778485986309105   0.890305305951538   0.375000000000000   1.0000000
B2   B   0.945323083291159   0.388627133125342   0.375000000000000   1.0000000
B2   B   0.111109477146507   0.555552287626343   0.875000000000000   1.0000000
B2   B   0.277775173155533   0.055555394716904   0.875000000000000   1.0000000
B2   B   0.777779908997088   0.555556621165212   0.875000000000000   1.0000000
B2   B   0.611114497389352   0.055555110637196   0.875000000000000   1.0000000
B2   B   0.944443517189813   0.055556482810188   0.875000000000000   1.0000000
B2   B   0.055550353182707   0.111109965449749   0.124999381252409   1.0000000
B2   B   0.555542980453786   0.611142724758981   0.125069355091276   1.0000000
B2   B   0.388880401703021   0.111094136739384   0.125015654113829   1.0000000
B2   B   0.888905863260616   0.611119598296980   0.125015654113829   1.0000000
B2   B   0.722226278933707   0.111109965449749   0.124999381252409   1.0000000
B2   B   0.055558562525143   0.777780697148648   0.624998658271391   1.0000000
B2   B   0.388888801290169   0.777780697148648   0.624998658271391   1.0000000
B2   B   0.222213235448718   0.277773284391027   0.624998304594309   1.0000000
B2   B   0.722226715608973   0.777786764551282   0.624998304594309   1.0000000
B2   B   0.555542980453786   0.277733589028141   0.624930644908724   1.0000000
B2   B   0.888890034550251   0.277773721066293   0.625000618747591   1.0000000
B2   B   0.222222222222221   0.777777777777779   0.124994896705358   1.0000000
B2   B   0.055550353182707   0.277773721066293   0.124999381252409   1.0000000
B2   B   0.388857275241018   0.277733589028141   0.125069355091276   1.0000000
B2   B   0.555559107214444   0.777786152204092   0.125000091785485   1.0000000
B2   B   0.888893711656312   0.777786152204092   0.125000091785485   1.0000000
B2   B   0.722226715608973   0.277773284391027   0.125001695405691   1.0000000
B2   B   0.055552735661700   0.944447264338299   0.625003948403175   1.0000000
B2   B   0.388888801290169   0.944441437474857   0.624998658271391   1.0000000
B2   B   0.222213847795908   0.444440892785556   0.624999908214515   1.0000000
B2   B   0.555555555555557   0.444444444444443   0.625178017033476   1.0000000
B2   B   0.722226278933707   0.944449646817293   0.625000618747591   1.0000000
B2   B   0.888893711656312   0.444440892785556   0.624999908214515   1.0000000
B2   B   0.055552735661700   0.444438804656729   0.124996051596825   1.0000000
B2   B   0.222219302851352   0.944441437474857   0.125001341728609   1.0000000
B2   B   0.555561195343271   0.944447264338299   0.124996051596825   1.0000000
B2   B   0.388857275241018   0.444457019546213   0.125069355091276   1.0000000
B2   B   0.888890034550251   0.944449646817293   0.124999381252409   1.0000000
B2   B   0.722266410971859   0.444457019546213   0.125069355091276   1.0000000
B2   B   0.222219302851352   0.611111198709830   0.624998658271391   1.0000000
B2   B   0.055550353182707   0.111109965449749   0.625000618747591   1.0000000
B2   B   0.555542980453786   0.611142724758981   0.624930644908724   1.0000000
B2   B   0.388880401703021   0.111094136739384   0.624984345886171   1.0000000
B2   B   0.888905863260616   0.611119598296980   0.624984345886171   1.0000000
B2   B   0.055558562525143   0.611111198709830   0.125001341728609   1.0000000
B2   B   0.722226278933707   0.111109965449749   0.625000618747591   1.0000000
B2   B   0.222213847795908   0.111106288343688   0.125000091785485   1.0000000
B2   B   0.388880401703021   0.611119598296980   0.125015654113829   1.0000000
B2   B   0.722266410971859   0.611142724758981   0.125069355091276   1.0000000
B2   B   0.555559107214444   0.111106288343688   0.125000091785485   1.0000000
B2   B   0.388880401703021   0.611119598296980   0.624984345886171   1.0000000
B2   B   0.888888888888886   0.111111111111114   0.124998614862510   1.0000000
B2   B   0.222222222222221   0.777777777777779   0.625005103294642   1.0000000
B2   B   0.055550353182707   0.277773721066293   0.625000618747591   1.0000000
B2   B   0.388857275241018   0.277733589028141   0.624930644908724   1.0000000
B2   B   0.555559107214444   0.777786152204092   0.624999908214515   1.0000000
B2   B   0.888893711656312   0.777786152204092   0.624999908214515   1.0000000
B2   B   0.722226715608973   0.277773284391027   0.624998304594309   1.0000000
B2   B   0.055558562525143   0.777780697148648   0.125001341728609   1.0000000
B2   B   0.388888801290169   0.777780697148648   0.125001341728609   1.0000000
B2   B   0.222213235448718   0.277773284391027   0.125001695405691   1.0000000
B2   B   0.722226715608973   0.777786764551282   0.125001695405691   1.0000000
B2   B   0.555542980453786   0.277733589028141   0.125069355091276   1.0000000
B2   B   0.888890034550251   0.277773721066293   0.124999381252409   1.0000000
B2   B   0.055552735661700   0.444438804656729   0.625003948403175   1.0000000
B2   B   0.222219302851352   0.944441437474857   0.624998658271391   1.0000000
B2   B   0.555561195343271   0.944447264338299   0.625003948403175   1.0000000
B2   B   0.388857275241018   0.444457019546213   0.624930644908724   1.0000000
B2   B   0.888890034550251   0.944449646817293   0.625000618747591   1.0000000
B2   B   0.055552735661700   0.944447264338299   0.124996051596825   1.0000000
B2   B   0.722266410971859   0.444457019546213   0.624930644908724   1.0000000
B2   B   0.388888801290169   0.944441437474857   0.125001341728609   1.0000000
B2   B   0.222213847795908   0.444440892785556   0.125000091785485   1.0000000
B2   B   0.222219302851352   0.611111198709830   0.125001341728609   1.0000000
B2   B   0.555555555555557   0.444444444444443   0.124821982966524   1.0000000
B2   B   0.722226278933707   0.944449646817293   0.124999381252409   1.0000000
B2   B   0.888893711656312   0.444440892785556   0.125000091785485   1.0000000
B2   B   0.055558562525143   0.611111198709830   0.624998658271391   1.0000000
B2   B   0.222213847795908   0.111106288343688   0.624999908214515   1.0000000
B2   B   0.722266410971859   0.611142724758981   0.624930644908724   1.0000000
B2   B   0.555559107214444   0.111106288343688   0.624999908214515   1.0000000
B2   B   0.888888888888886   0.111111111111114   0.625001385137490   1.0000000
B2   B   0.555555555555557   0.444444444444443   0.375000000000000   1.0000000


