data_1
_audit_creation_method   'vasp2cif'
_cell_length_a    14.93631414619966
_cell_length_b    14.936314146199727
_cell_length_c    13.341276283792837
_cell_angle_alpha    90.0
_cell_angle_beta    90.0
_cell_angle_gamma    119.99999999999984

_symmetry_space_group_name_H-M    'P 1'
loop_
_atom_site_label
_atom_site_type_symbol
_atom_site_fract_x
_atom_site_fract_y
_atom_site_fract_z
_atom_site_occupancy
Ge2   Ge   0.496439748232290   0.414886540782810   0.375000000000000   1.0000000
N2   N   0.111102960127110   0.055549471963883   0.124930408311905   1.0000000
N2   N   0.611252530564841   0.555759362318270   0.123204772146663   1.0000000
N2   N   0.444504636576718   0.055586377504913   0.124860576751606   1.0000000
N2   N   0.944458185414008   0.555554183550533   0.124853777907570   1.0000000
N2   N   0.777837771025001   0.055585552179172   0.124840067274046   1.0000000
N2   N   0.111136740067302   0.722235036700319   0.625102255244532   1.0000000
N2   N   0.444504636576718   0.722251592405138   0.625139423248396   1.0000000
N2   N   0.277689371822964   0.222173483594291   0.625667502561001   1.0000000
N2   N   0.777820715677769   0.722292944241984   0.625529448534628   1.0000000
N2   N   0.611182178223536   0.222207532694493   0.625578564695396   1.0000000
N2   N   0.944463568196087   0.222223450683344   0.625109115994992   1.0000000
N2   N   0.277824212535272   0.722242639897056   0.124910986603509   1.0000000
N2   N   0.111067704912601   0.222200519122966   0.124875268786021   1.0000000
N2   N   0.444495203202696   0.222255816321511   0.124315678321759   1.0000000
N2   N   0.611182178223536   0.722307978862370   0.124421435304602   1.0000000
N2   N   0.944458185414008   0.722237335196809   0.124853777907570   1.0000000
N2   N   0.777835064106375   0.222212806246682   0.124827240060686   1.0000000
N2   N   0.111137974789809   0.888908303688491   0.625096325219468   1.0000000
N2   N   0.444505365358602   0.888919349345964   0.625117023489506   1.0000000
N2   N   0.277689371822964   0.388849221562001   0.625667502561001   1.0000000
N2   N   0.611252530564841   0.388826501579903   0.626795227853335   1.0000000
N2   N   0.777835064106375   0.888955591193024   0.625172759939314   1.0000000
N2   N   0.944469179739790   0.388887663702724   0.625066113822217   1.0000000
N2   N   0.111102960127110   0.388886821496553   0.124930408311905   1.0000000
N2   N   0.277824212535272   0.888914905971544   0.124910986603509   1.0000000
N2   N   0.611176852810133   0.888938872820053   0.124854673323271   1.0000000
N2   N   0.444137495420986   0.388735414377156   0.122749097765337   1.0000000
N2   N   0.944469179739790   0.888914849370397   0.124933886177781   1.0000000
N2   N   0.777820715677769   0.388861104769111   0.124470551465370   1.0000000
N2   N   0.277817553564623   0.555566994357870   0.625142088976857   1.0000000
N2   N   0.111102960127110   0.055549471963883   0.625069591688089   1.0000000
N2   N   0.611252530564841   0.555759362318270   0.626795227853335   1.0000000
N2   N   0.444504636576718   0.055586377504913   0.625139423248396   1.0000000
N2   N   0.944458185414008   0.555554183550533   0.625146222092429   1.0000000
N2   N   0.111137974789809   0.555563004434638   0.124903674780534   1.0000000
N2   N   0.777837771025001   0.055585552179172   0.625159932725954   1.0000000
N2   N   0.277817553564623   0.055583892540085   0.124857911023146   1.0000000
N2   N   0.444495203202696   0.555572720214520   0.124315678321759   1.0000000
N2   N   0.777802150497874   0.555567741915606   0.124308776466576   1.0000000
N2   N   0.611176852810133   0.055571313323415   0.124854673323271   1.0000000
N2   N   0.444495203202696   0.555572720214520   0.625684321678242   1.0000000
N2   N   0.944463568196087   0.055573450846075   0.124890884005011   1.0000000
N2   N   0.277824212535272   0.722242639897056   0.625089013396493   1.0000000
N2   N   0.111067704912601   0.222200519122966   0.625124731213978   1.0000000
N2   N   0.444495203202696   0.222255816321511   0.625684321678242   1.0000000
N2   N   0.611182178223536   0.722307978862370   0.625578564695396   1.0000000
N2   N   0.944458185414008   0.722237335196809   0.625146222092429   1.0000000
N2   N   0.777835064106375   0.222212806246682   0.625172759939314   1.0000000
N2   N   0.111136740067302   0.722235036700319   0.124897744755470   1.0000000
N2   N   0.444504636576718   0.722251592405138   0.124860576751606   1.0000000
N2   N   0.277689371822964   0.222173483594291   0.124332497438999   1.0000000
N2   N   0.777820715677769   0.722292944241984   0.124470551465370   1.0000000
N2   N   0.611182178223536   0.222207532694493   0.124421435304602   1.0000000
N2   N   0.944463568196087   0.222223450683344   0.124890884005011   1.0000000
N2   N   0.111102960127110   0.388886821496553   0.625069591688089   1.0000000
N2   N   0.277824212535272   0.888914905971544   0.625089013396493   1.0000000
N2   N   0.611176852810133   0.888938872820053   0.625145326676731   1.0000000
N2   N   0.444137495420986   0.388735414377156   0.627250902234665   1.0000000
N2   N   0.944469179739790   0.888914849370397   0.625066113822217   1.0000000
N2   N   0.111137974789809   0.888908303688491   0.124903674780534   1.0000000
N2   N   0.777820715677769   0.388861104769111   0.625529448534628   1.0000000
N2   N   0.444505365358602   0.888919349345964   0.124882976510493   1.0000000
N2   N   0.277689371822964   0.388849221562001   0.124332497438999   1.0000000
N2   N   0.277817553564623   0.555566994357870   0.124857911023146   1.0000000
N2   N   0.611252530564841   0.388826501579903   0.123204772146663   1.0000000
N2   N   0.777835064106375   0.888955591193024   0.124827240060686   1.0000000
N2   N   0.944469179739790   0.388887663702724   0.124933886177781   1.0000000
N2   N   0.111137974789809   0.555563004434638   0.625096325219468   1.0000000
N2   N   0.277817553564623   0.055583892540085   0.625142088976857   1.0000000
N2   N   0.777802150497874   0.555567741915606   0.625691223533423   1.0000000
N2   N   0.611176852810133   0.055571313323415   0.625145326676731   1.0000000
N2   N   0.944463568196087   0.055573450846075   0.625109115994992   1.0000000
N2   N   0.058823874248327   0.112926110142559   0.375000000000000   1.0000000
N2   N   0.555637065169397   0.619157028761936   0.375000000000000   1.0000000
N2   N   0.388258104888654   0.105801236061068   0.375000000000000   1.0000000
N2   N   0.886869112238658   0.610101222786001   0.375000000000000   1.0000000
N2   N   0.724305675218583   0.111432845415478   0.375000000000000   1.0000000
N2   N   0.055548281123176   0.777773359489460   0.875000000000000   1.0000000
N2   N   0.388861610538670   0.777772377325512   0.875000000000000   1.0000000
N2   N   0.222206449569038   0.277769891451188   0.875000000000000   1.0000000
N2   N   0.722199202006132   0.777760522453279   0.875000000000000   1.0000000
N2   N   0.555520846075693   0.277753486610592   0.875000000000000   1.0000000
N2   N   0.888870576411778   0.277773641050390   0.875000000000000   1.0000000
N2   N   0.220944254282863   0.777138793808096   0.375000000000000   1.0000000
N2   N   0.058823874248327   0.279231097439096   0.375000000000000   1.0000000
N2   N   0.392751815139243   0.272772616971197   0.375000000000000   1.0000000
N2   N   0.556219134438468   0.781637893527514   0.375000000000000   1.0000000
N2   N   0.888650679145517   0.777912733487052   0.375000000000000   1.0000000
N2   N   0.723803090433757   0.276784193387319   0.375000000000000   1.0000000
N2   N   0.055535972782074   0.944429279865659   0.875000000000000   1.0000000
N2   N   0.388861610538670   0.944422566546499   0.875000000000000   1.0000000
N2   N   0.222197303248128   0.444443215191834   0.875000000000000   1.0000000
N2   N   0.555532839902361   0.444433086617845   0.875000000000000   1.0000000
N2   N   0.722196689883065   0.944429617125653   0.875000000000000   1.0000000
N2   N   0.888880693364318   0.444444889862973   0.875000000000000   1.0000000
N2   N   0.056358286970908   0.444962062093691   0.375000000000000   1.0000000
N2   N   0.221307486426763   0.942758954207608   0.375000000000000   1.0000000
N2   N   0.556326017425765   0.944829675379546   0.375000000000000   1.0000000
N2   N   0.392751815139250   0.453312531501380   0.375000000000000   1.0000000
N2   N   0.891140249695539   0.946153021131413   0.375000000000000   1.0000000
N2   N   0.720434129692581   0.442848864453470   0.375000000000000   1.0000000
N2   N   0.222196150381890   0.611107918591360   0.875000000000000   1.0000000
N2   N   0.055537516115207   0.111098920667657   0.875000000000000   1.0000000
N2   N   0.555520846075693   0.611100692798427   0.875000000000000   1.0000000
N2   N   0.388855526646061   0.111076465929654   0.875000000000000   1.0000000
N2   N   0.888901061905341   0.611117197619343   0.875000000000000   1.0000000
N2   N   0.054261757792910   0.610706123498657   0.375000000000000   1.0000000
N2   N   0.722196689883065   0.111100406090749   0.875000000000000   1.0000000
N2   N   0.224274854019076   0.111203725481435   0.375000000000000   1.0000000
N2   N   0.388258104888654   0.615790202160927   0.375000000000000   1.0000000
N2   N   0.720434129692581   0.610918598572447   0.375000000000000   1.0000000
N2   N   0.556219134438468   0.107914574244288   0.375000000000000   1.0000000
N2   N   0.388855526646061   0.611112394049747   0.875000000000000   1.0000000
N2   N   0.891766024144801   0.112549678739075   0.375000000000000   1.0000000
N2   N   0.222202174388970   0.777767753861147   0.875000000000000   1.0000000
N2   N   0.055537516115207   0.277771928780887   0.875000000000000   1.0000000
N2   N   0.388865437685489   0.277745970098951   0.875000000000000   1.0000000
N2   N   0.555524010470240   0.777766056511715   0.875000000000000   1.0000000
N2   N   0.888880693364318   0.777769136834684   0.875000000000000   1.0000000
N2   N   0.722199202006132   0.277772012886185   0.875000000000000   1.0000000
N2   N   0.054261757792910   0.776888967627598   0.375000000000000   1.0000000
N2   N   0.388292465497660   0.779062158195661   0.375000000000000   1.0000000
N2   N   0.227259843279590   0.280296588306458   0.375000000000000   1.0000000
N2   N   0.723803090433757   0.780352230379777   0.375000000000000   1.0000000
N2   N   0.555637065169397   0.269813369740801   0.375000000000000   1.0000000
N2   N   0.891140249695539   0.278320561897457   0.375000000000000   1.0000000
N2   N   0.055535972782074   0.444440026249741   0.875000000000000   1.0000000
N2   N   0.222196150381890   0.944421565123867   0.875000000000000   1.0000000
N2   N   0.555527560903643   0.944430447118490   0.875000000000000   1.0000000
N2   N   0.388865437685489   0.444452800919874   0.875000000000000   1.0000000
N2   N   0.888870576411778   0.944430268694724   0.875000000000000   1.0000000
N2   N   0.056358286970908   0.944729558210538   0.375000000000000   1.0000000
N2   N   0.722221930968694   0.444451974466309   0.875000000000000   1.0000000
N2   N   0.388292465497660   0.942563640635330   0.375000000000000   1.0000000
N2   N   0.224274854019076   0.446404461870976   0.375000000000000   1.0000000
N2   N   0.221307486426763   0.611881865552489   0.375000000000000   1.0000000
N2   N   0.724305675218583   0.946206163136440   0.375000000000000   1.0000000
N2   N   0.888650679145517   0.444071278991802   0.375000000000000   1.0000000
N2   N   0.055548281123176   0.611108254967046   0.875000000000000   1.0000000
N2   N   0.222197303248128   0.111087421389620   0.875000000000000   1.0000000
N2   N   0.722221930968694   0.611103289835721   0.875000000000000   1.0000000
N2   N   0.555524010470240   0.111091287291856   0.875000000000000   1.0000000
N2   N   0.888870450954149   0.111101892143744   0.875000000000000   1.0000000
B2   B   0.113558745085110   0.056462967267607   0.375000000000000   1.0000000
B2   B   0.608949665868503   0.562021930130746   0.375000000000000   1.0000000
B2   B   0.444873445320171   0.052746146774694   0.375000000000000   1.0000000
B2   B   0.942990800192184   0.555080730255831   0.375000000000000   1.0000000
B2   B   0.780494076104130   0.056913704718728   0.375000000000000   1.0000000
B2   B   0.111088477465104   0.722210905399215   0.875000000000000   1.0000000
B2   B   0.444414556537944   0.722177114213656   0.875000000000000   1.0000000
B2   B   0.277827646270654   0.222255925143817   0.875000000000000   1.0000000
B2   B   0.777714093960232   0.722140768815339   0.875000000000000   1.0000000
B2   B   0.611052608153020   0.222254003018441   0.875000000000000   1.0000000
B2   B   0.944439646483779   0.222229128969325   0.875000000000000   1.0000000
B2   B   0.277132359826801   0.722597959868594   0.375000000000000   1.0000000
B2   B   0.116175634008633   0.224754483670984   0.375000000000000   1.0000000
B2   B   0.444473326708975   0.215920290763679   0.375000000000000   1.0000000
B2   B   0.612478020090228   0.727521067750280   0.375000000000000   1.0000000
B2   B   0.942990800192184   0.721243403269681   0.375000000000000   1.0000000
B2   B   0.779979352152194   0.222508297652067   0.375000000000000   1.0000000
B2   B   0.111099553780416   0.888882556300596   0.875000000000000   1.0000000
B2   B   0.444414872578567   0.888874102955949   0.875000000000000   1.0000000
B2   B   0.277827646270654   0.388905054460165   0.875000000000000   1.0000000
B2   B   0.611043053199845   0.388911923825944   0.875000000000000   1.0000000
B2   B   0.777732684291506   0.888829964988798   0.875000000000000   1.0000000
B2   B   0.944418495509201   0.388896021164911   0.875000000000000   1.0000000
B2   B   0.113558745085110   0.390429111150826   0.375000000000000   1.0000000
B2   B   0.277132359826801   0.887867733291536   0.375000000000000   1.0000000
B2   B   0.612869127783160   0.891238785286051   0.375000000000000   1.0000000
B2   B   0.945265272828300   0.889304304563655   0.375000000000000   1.0000000
B2   B   0.777167766614819   0.388214773110760   0.375000000000000   1.0000000
B2   B   0.277785493796792   0.555543892146846   0.875000000000000   1.0000000
B2   B   0.111125889348336   0.055563677963410   0.875000000000000   1.0000000
B2   B   0.611043053199845   0.555464462707229   0.875000000000000   1.0000000
B2   B   0.444414556537944   0.055570775657621   0.875000000000000   1.0000000
B2   B   0.944408195554604   0.555550434477645   0.875000000000000   1.0000000
B2   B   0.110536294472324   0.555864244193474   0.375000000000000   1.0000000
B2   B   0.777745811035637   0.055539572184483   0.875000000000000   1.0000000
B2   B   0.277847634404542   0.053800754109383   0.375000000000000   1.0000000
B2   B   0.444473326708975   0.561886369278631   0.375000000000000   1.0000000
B2   B   0.774722940865565   0.554028137099450   0.375000000000000   1.0000000
B2   B   0.612869127783160   0.054963675830448   0.375000000000000   1.0000000
B2   B   0.444438590839741   0.555514009675236   0.875000000000000   1.0000000
B2   B   0.947722364150492   0.057409803512040   0.375000000000000   1.0000000
B2   B   0.277762771085422   0.722207588173367   0.875000000000000   1.0000000
B2   B   0.111149799617621   0.222241566475471   0.875000000000000   1.0000000
B2   B   0.444438590839741   0.222257914497842   0.875000000000000   1.0000000
B2   B   0.611052608153020   0.722131938467904   0.875000000000000   1.0000000
B2   B   0.944408195554604   0.722191094410294   0.875000000000000   1.0000000
B2   B   0.777732684291506   0.222236052636032   0.875000000000000   1.0000000
B2   B   0.109856885073949   0.721595109203639   0.375000000000000   1.0000000
B2   B   0.444873445320171   0.725460631878815   0.375000000000000   1.0000000
B2   B   0.283518207607873   0.224131746080492   0.375000000000000   1.0000000
B2   B   0.777167766614819   0.722286326837389   0.375000000000000   1.0000000
B2   B   0.612478020090228   0.218290285673275   0.375000000000000   1.0000000
B2   B   0.947722364150492   0.223645893971787   0.375000000000000   1.0000000
B2   B   0.111125889348336   0.388895544718254   0.875000000000000   1.0000000
B2   B   0.277762771085422   0.888888516245384   0.875000000000000   1.0000000
B2   B   0.611067162214534   0.888844879771718   0.875000000000000   1.0000000
B2   B   0.444482631492899   0.388907982413112   0.875000000000000   1.0000000
B2   B   0.944418495509201   0.888855807677619   0.875000000000000   1.0000000
B2   B   0.110536294472324   0.888005383612181   0.375000000000000   1.0000000
B2   B   0.777714093960232   0.388906658478219   0.875000000000000   1.0000000
B2   B   0.444863097868862   0.889098215601096   0.375000000000000   1.0000000
B2   B   0.283518207607873   0.392719794860711   0.375000000000000   1.0000000
B2   B   0.277847634404542   0.557380213628493   0.375000000000000   1.0000000
B2   B   0.608949665868503   0.380261069071077   0.375000000000000   1.0000000
B2   B   0.779979352152194   0.890804387833465   0.375000000000000   1.0000000
B2   B   0.945265272828300   0.389294301597970   0.375000000000000   1.0000000
B2   B   0.111099553780416   0.555550330813155   0.875000000000000   1.0000000
B2   B   0.277785493796792   0.055574934983288   0.875000000000000   1.0000000
B2   B   0.777716206387672   0.555524769860502   0.875000000000000   1.0000000
B2   B   0.611067162214534   0.055555615776151   0.875000000000000   1.0000000
B2   B   0.944439646483779   0.055543850847791   0.875000000000000   1.0000000
B2   B   0.055613817237597   0.111160888523042   0.125107570512865   1.0000000
B2   B   0.555656512461760   0.610983300987758   0.124531285016210   1.0000000
B2   B   0.389037500683105   0.111363259228746   0.125053934889204   1.0000000
B2   B   0.888700167212208   0.611016750272776   0.124924176209671   1.0000000
B2   B   0.722267177059451   0.111141552344567   0.125006787666956   1.0000000
B2   B   0.055524375671877   0.777781781756560   0.624956244776551   1.0000000
B2   B   0.388988386106654   0.777768714942423   0.624936774519298   1.0000000
B2   B   0.222308657255115   0.277820995294224   0.625067900911504   1.0000000
B2   B   0.722200257429168   0.777737972922440   0.625174444858022   1.0000000
B2   B   0.555656512461760   0.278006544807339   0.625468714983783   1.0000000
B2   B   0.888904264513082   0.277775878081124   0.624953585991219   1.0000000
B2   B   0.222274303286005   0.777803818309673   0.125038295541808   1.0000000
B2   B   0.055613817237597   0.277786262047892   0.125107570512865   1.0000000
B2   B   0.388947036662591   0.277950283845816   0.124474136140428   1.0000000
B2   B   0.555634266813170   0.777737881282274   0.124964943998598   1.0000000
B2   B   0.888807534810677   0.777742553641095   0.124962690930689   1.0000000
B2   B   0.722200257429168   0.277795617840068   0.124825555141980   1.0000000
B2   B   0.055582013499463   0.944496203091466   0.624887891828608   1.0000000
B2   B   0.388988386106654   0.944553004497565   0.624936774519298   1.0000000
B2   B   0.222314428750141   0.444401093660897   0.624941881151034   1.0000000
B2   B   0.555465991478645   0.444399662405987   0.622668926881155   1.0000000
B2   B   0.722267177059451   0.944458958048222   0.624993212333052   1.0000000
B2   B   0.888807534810677   0.444398314502924   0.625037309069313   1.0000000
B2   B   0.055582013499463   0.444419143741324   0.125112108171393   1.0000000
B2   B   0.222307873838071   0.944570097008344   0.125079562581690   1.0000000
B2   B   0.555633918767455   0.944483626050396   0.125043220741322   1.0000000
B2   B   0.388947036662591   0.444330086150112   0.124474136140428   1.0000000
B2   B   0.888904264513082   0.944461719765297   0.125046414008778   1.0000000
B2   B   0.721971074336012   0.444324369555799   0.124359786933113   1.0000000
B2   B   0.222307873838071   0.611071110163063   0.624920437418312   1.0000000
B2   B   0.055613817237597   0.111160888523042   0.624892429487137   1.0000000
B2   B   0.555656512461760   0.610983300987758   0.625468714983783   1.0000000
B2   B   0.389037500683105   0.111363259228746   0.624946065110794   1.0000000
B2   B   0.888700167212208   0.611016750272776   0.625075823790331   1.0000000
B2   B   0.055524375671877   0.611075927248655   0.125043755223451   1.0000000
B2   B   0.722267177059451   0.111141552344567   0.624993212333052   1.0000000
B2   B   0.222314428750141   0.111246668422579   0.125058118848966   1.0000000
B2   B   0.389037500683105   0.611007574787705   0.125053934889204   1.0000000
B2   B   0.721971074336012   0.610980038113556   0.124359786933113   1.0000000
B2   B   0.555634266813170   0.111229718864235   0.124964943998598   1.0000000
B2   B   0.389037500683105   0.611007574787705   0.624946065110794   1.0000000
B2   B   0.888932872574092   0.111133102953715   0.125022202223706   1.0000000
B2   B   0.222274303286005   0.777803818309673   0.624961704458199   1.0000000
B2   B   0.055613817237597   0.277786262047892   0.624892429487137   1.0000000
B2   B   0.388947036662591   0.277950283845816   0.625525863859574   1.0000000
B2   B   0.555634266813170   0.777737881282274   0.625035056001406   1.0000000
B2   B   0.888807534810677   0.777742553641095   0.625037309069313   1.0000000
B2   B   0.722200257429168   0.277795617840068   0.625174444858022   1.0000000
B2   B   0.055524375671877   0.777781781756560   0.125043755223451   1.0000000
B2   B   0.388988386106654   0.777768714942423   0.125063225480704   1.0000000
B2   B   0.222308657255115   0.277820995294224   0.124932099088496   1.0000000
B2   B   0.722200257429168   0.777737972922440   0.124825555141980   1.0000000
B2   B   0.555656512461760   0.278006544807339   0.124531285016210   1.0000000
B2   B   0.888904264513082   0.277775878081124   0.125046414008778   1.0000000
B2   B   0.055582013499463   0.444419143741324   0.624887891828608   1.0000000
B2   B   0.222307873838071   0.944570097008344   0.624920437418312   1.0000000
B2   B   0.555633918767455   0.944483626050396   0.624956779258679   1.0000000
B2   B   0.388947036662591   0.444330086150112   0.625525863859574   1.0000000
B2   B   0.888904264513082   0.944461719765297   0.624953585991219   1.0000000
B2   B   0.055582013499463   0.944496203091466   0.125112108171393   1.0000000
B2   B   0.721971074336012   0.444324369555799   0.625640213066887   1.0000000
B2   B   0.388988386106654   0.944553004497565   0.125063225480704   1.0000000
B2   B   0.222314428750141   0.444401093660897   0.125058118848966   1.0000000
B2   B   0.222307873838071   0.611071110163063   0.125079562581690   1.0000000
B2   B   0.555465991478645   0.444399662405987   0.127331073118844   1.0000000
B2   B   0.722267177059451   0.944458958048222   0.125006787666956   1.0000000
B2   B   0.888807534810677   0.444398314502924   0.124962690930689   1.0000000
B2   B   0.055524375671877   0.611075927248655   0.624956244776551   1.0000000
B2   B   0.222314428750141   0.111246668422579   0.624941881151034   1.0000000
B2   B   0.721971074336012   0.610980038113556   0.625640213066887   1.0000000
B2   B   0.555634266813170   0.111229718864235   0.625035056001406   1.0000000
B2   B   0.888932872574092   0.111133102953715   0.624977797776295   1.0000000


