data_1
_audit_creation_method   'vasp2cif'
_cell_length_a    14.93631414619966
_cell_length_b    14.936314146199727
_cell_length_c    13.341276283792837
_cell_angle_alpha    90.0
_cell_angle_beta    90.0
_cell_angle_gamma    119.99999999999984

_symmetry_space_group_name_H-M    'P 1'
loop_
_atom_site_label
_atom_site_type_symbol
_atom_site_fract_x
_atom_site_fract_y
_atom_site_fract_z
_atom_site_occupancy
C2   C   0.611813899498863   0.390170395720142   0.375000000000000   1.0000000
C2   C   0.445023162887951   0.390170395720142   0.375000000000000   1.0000000
C2   C   0.553026201810804   0.439385736954937   0.375000000000000   1.0000000
N2   N   0.111119165425902   0.055551472650414   0.125195327054236   1.0000000
N2   N   0.611101048837835   0.555535431008997   0.124562049928302   1.0000000
N2   N   0.444438332160929   0.055552658517397   0.125234969525210   1.0000000
N2   N   0.944446910837398   0.555547050786937   0.125187093282459   1.0000000
N2   N   0.777774034570843   0.055558386323411   0.125137061722465   1.0000000
N2   N   0.111107105600343   0.722211391997032   0.624878739128997   1.0000000
N2   N   0.444433002788145   0.722201053027883   0.624835238847707   1.0000000
N2   N   0.277794351861399   0.222237991717781   0.624596784854632   1.0000000
N2   N   0.777763263052296   0.722203497512424   0.624776948885207   1.0000000
N2   N   0.611110306523054   0.222237991717781   0.624596784854632   1.0000000
N2   N   0.944449087798966   0.222231508931269   0.624878175106349   1.0000000
N2   N   0.277770953063360   0.722211391997032   0.125121260871004   1.0000000
N2   N   0.111114742613522   0.222226600753130   0.125197157822454   1.0000000
N2   N   0.444455658290432   0.222244649914198   0.125458798753383   1.0000000
N2   N   0.611106901126798   0.722203497512424   0.125223051114794   1.0000000
N2   N   0.944434716906402   0.722201053027883   0.125164761152293   1.0000000
N2   N   0.777778524806279   0.222226600753130   0.125197157822454   1.0000000
N2   N   0.111107227921634   0.888875631751843   0.624870501532910   1.0000000
N2   N   0.444435070496881   0.888875631751843   0.624870501532910   1.0000000
N2   N   0.277772027713423   0.388888373246905   0.624642796748023   1.0000000
N2   N   0.611124195693069   0.388887818678545   0.625035555315156   1.0000000
N2   N   0.777775903803424   0.888885140940177   0.624853039770840   1.0000000
N2   N   0.944454782549167   0.388897544222584   0.624834784648359   1.0000000
N2   N   0.111109428340089   0.388897544222584   0.125165215351641   1.0000000
N2   N   0.277772058708308   0.888877450749945   0.125123471864552   1.0000000
N2   N   0.611101557255767   0.888873602608024   0.125160093738991   1.0000000
N2   N   0.444430289652148   0.388887818678545   0.124964444684844   1.0000000
N2   N   0.944438712018928   0.888873602608024   0.125160093738991   1.0000000
N2   N   0.777783012200153   0.388888373246905   0.125357203251978   1.0000000
N2   N   0.277766806616203   0.555547050786937   0.624812906717541   1.0000000
N2   N   0.111119165425902   0.055551472650414   0.624804672945764   1.0000000
N2   N   0.611101048837835   0.555535431008997   0.625437950071698   1.0000000
N2   N   0.444438332160929   0.055552658517397   0.624765030474789   1.0000000
N2   N   0.944446910837398   0.555547050786937   0.624812906717541   1.0000000
N2   N   0.111111320479416   0.555555974292161   0.125129665039544   1.0000000
N2   N   0.777774034570843   0.055558386323411   0.624862938277534   1.0000000
N2   N   0.277780993023132   0.055552658517397   0.125234969525210   1.0000000
N2   N   0.444414950175714   0.555517088060873   0.125245682110062   1.0000000
N2   N   0.777768804551823   0.555517088060873   0.125245682110062   1.0000000
N2   N   0.611098973891184   0.055551472650414   0.125195327054236   1.0000000
N2   N   0.444414950175714   0.555517088060873   0.624754317889939   1.0000000
N2   N   0.944451018419232   0.055558386323411   0.125137061722465   1.0000000
N2   N   0.277770953063360   0.722211391997032   0.624878739128997   1.0000000
N2   N   0.111114742613522   0.222226600753130   0.624802842177547   1.0000000
N2   N   0.444455658290432   0.222244649914198   0.624541201246617   1.0000000
N2   N   0.611106901126798   0.722203497512424   0.624776948885207   1.0000000
N2   N   0.944434716906402   0.722201053027883   0.624835238847707   1.0000000
N2   N   0.777778524806279   0.222226600753130   0.624802842177547   1.0000000
N2   N   0.111107105600343   0.722211391997032   0.125121260871004   1.0000000
N2   N   0.444433002788145   0.722201053027883   0.125164761152293   1.0000000
N2   N   0.277794351861399   0.222237991717781   0.125403215145368   1.0000000
N2   N   0.777763263052296   0.722203497512424   0.125223051114794   1.0000000
N2   N   0.611110306523054   0.222237991717781   0.125403215145368   1.0000000
N2   N   0.944449087798966   0.222231508931269   0.125121824893651   1.0000000
N2   N   0.111109428340089   0.388897544222584   0.624834784648359   1.0000000
N2   N   0.277772058708308   0.888877450749945   0.624876528135449   1.0000000
N2   N   0.611101557255767   0.888873602608024   0.624839906261010   1.0000000
N2   N   0.444430289652148   0.388887818678545   0.625035555315156   1.0000000
N2   N   0.944438712018928   0.888873602608024   0.624839906261010   1.0000000
N2   N   0.111107227921634   0.888875631751843   0.125129498467091   1.0000000
N2   N   0.777783012200153   0.388888373246905   0.624642796748023   1.0000000
N2   N   0.444435070496881   0.888875631751843   0.125129498467091   1.0000000
N2   N   0.277772027713423   0.388888373246905   0.125357203251978   1.0000000
N2   N   0.277766806616203   0.555547050786937   0.125187093282459   1.0000000
N2   N   0.611124195693069   0.388887818678545   0.124964444684844   1.0000000
N2   N   0.777775903803424   0.888885140940177   0.125146960229160   1.0000000
N2   N   0.944454782549167   0.388897544222584   0.125165215351641   1.0000000
N2   N   0.111111320479416   0.555555974292161   0.624870334960456   1.0000000
N2   N   0.277780993023132   0.055552658517397   0.624765030474789   1.0000000
N2   N   0.777768804551823   0.555517088060873   0.624754317889939   1.0000000
N2   N   0.611098973891184   0.055551472650414   0.624804672945764   1.0000000
N2   N   0.944451018419232   0.055558386323411   0.624862938277534   1.0000000
N2   N   0.055519151579486   0.110856274978322   0.375000000000000   1.0000000
N2   N   0.550287553583486   0.612840182815466   0.375000000000000   1.0000000
N2   N   0.390870688196678   0.115074709726700   0.375000000000000   1.0000000
N2   N   0.887932127849578   0.609489175770568   0.375000000000000   1.0000000
N2   N   0.722003790065500   0.110856274978322   0.375000000000000   1.0000000
N2   N   0.055561163435821   0.777790062198659   0.875000000000000   1.0000000
N2   N   0.388895565429502   0.777790062198659   0.875000000000000   1.0000000
N2   N   0.222226611516860   0.277782371383125   0.875000000000000   1.0000000
N2   N   0.722226175191313   0.777785683715961   0.875000000000000   1.0000000
N2   N   0.555556179146908   0.277781163649316   0.875000000000000   1.0000000
N2   N   0.888891110326374   0.277782965259692   0.875000000000000   1.0000000
N2   N   0.222416215647798   0.778165764628931   0.375000000000000   1.0000000
N2   N   0.055341180970772   0.277414609937417   0.375000000000000   1.0000000
N2   N   0.391589941984101   0.283513212235758   0.375000000000000   1.0000000
N2   N   0.555142539566173   0.777068341759118   0.375000000000000   1.0000000
N2   N   0.888592468859609   0.777068341759118   0.375000000000000   1.0000000
N2   N   0.722285917159411   0.277257740122008   0.375000000000000   1.0000000
N2   N   0.055559577166149   0.944455664834072   0.875000000000000   1.0000000
N2   N   0.388896516489021   0.944456322986127   0.875000000000000   1.0000000
N2   N   0.222226492280765   0.444449067307602   0.875000000000000   1.0000000
N2   N   0.555556784919170   0.444446903171669   0.875000000000000   1.0000000
N2   N   0.722226454871215   0.944453363532017   0.875000000000000   1.0000000
N2   N   0.888889241693502   0.444449067307602   0.875000000000000   1.0000000
N2   N   0.055335466711701   0.444004266756731   0.375000000000000   1.0000000
N2   N   0.223137635675120   0.945853169204980   0.375000000000000   1.0000000
N2   N   0.555447617987956   0.944765229757911   0.375000000000000   1.0000000
N2   N   0.390063246587097   0.440501125750190   0.375000000000000   1.0000000
N2   N   0.888865865011347   0.944165256808124   0.375000000000000   1.0000000
N2   N   0.717104545829758   0.440501125750190   0.375000000000000   1.0000000
N2   N   0.222225750788974   0.611117169091701   0.875000000000000   1.0000000
N2   N   0.055558727759288   0.111116543629135   0.875000000000000   1.0000000
N2   N   0.555557770148167   0.611116975065316   0.875000000000000   1.0000000
N2   N   0.388892200256999   0.111117733847342   0.875000000000000   1.0000000
N2   N   0.888891565458457   0.611118063632080   0.875000000000000   1.0000000
N2   N   0.055263279148769   0.610746132338676   0.375000000000000   1.0000000
N2   N   0.722224482536512   0.111116543629135   0.875000000000000   1.0000000
N2   N   0.223789147646133   0.112977209211682   0.375000000000000   1.0000000
N2   N   0.388223714587648   0.609489175770568   0.375000000000000   1.0000000
N2   N   0.729219295898643   0.612840182815466   0.375000000000000   1.0000000
N2   N   0.555854728232213   0.112977209211682   0.375000000000000   1.0000000
N2   N   0.388893164840281   0.611118063632080   0.875000000000000   1.0000000
N2   N   0.888700246919725   0.110733827172791   0.375000000000000   1.0000000
N2   N   0.222227802992430   0.777788939318195   0.875000000000000   1.0000000
N2   N   0.055558521599983   0.277782965259692   0.875000000000000   1.0000000
N2   N   0.388891651169073   0.277781163649316   0.875000000000000   1.0000000
N2   N   0.555560466669859   0.777787777875523   0.875000000000000   1.0000000
N2   N   0.888893977872328   0.777787777875523   0.875000000000000   1.0000000
N2   N   0.722222426532930   0.277782371383125   0.875000000000000   1.0000000
N2   N   0.055423161145866   0.777672569566295   0.375000000000000   1.0000000
N2   N   0.388916075087093   0.777672569566295   0.375000000000000   1.0000000
N2   N   0.221638489629263   0.277257740122008   0.375000000000000   1.0000000
N2   N   0.722314064608988   0.777961462551311   0.375000000000000   1.0000000
N2   N   0.558589936918322   0.283513212235758   0.375000000000000   1.0000000
N2   N   0.888740095633310   0.277414609937417   0.375000000000000   1.0000000
N2   N   0.055558551323244   0.444450435979817   0.875000000000000   1.0000000
N2   N   0.222226473163770   0.944456322986127   0.875000000000000   1.0000000
N2   N   0.555562754334594   0.944455664834072   0.875000000000000   1.0000000
N2   N   0.388893756745978   0.444449991263264   0.875000000000000   1.0000000
N2   N   0.888893575327467   0.944453363532017   0.875000000000000   1.0000000
N2   N   0.055984278436627   0.944765229757911   0.375000000000000   1.0000000
N2   N   0.722222901183950   0.444449991263264   0.875000000000000   1.0000000
N2   N   0.389382200196524   0.945853169204980   0.375000000000000   1.0000000
N2   N   0.222873055209202   0.443641069346213   0.375000000000000   1.0000000
N2   N   0.222149519856570   0.610746132338676   0.375000000000000   1.0000000
N2   N   0.721966058463441   0.944165256808124   0.375000000000000   1.0000000
N2   N   0.887434680803676   0.443641069346213   0.375000000000000   1.0000000
N2   N   0.055558084969392   0.611117169091701   0.875000000000000   1.0000000
N2   N   0.222224456523894   0.111117674698853   0.875000000000000   1.0000000
N2   N   0.722225871583811   0.611116975065316   0.875000000000000   1.0000000
N2   N   0.555559884841624   0.111117674698853   0.875000000000000   1.0000000
N2   N   0.888891215366193   0.111115764065729   0.875000000000000   1.0000000
B2   B   0.111421233396069   0.055865365053453   0.375000000000000   1.0000000
B2   B   0.444829157718291   0.056986947533684   0.375000000000000   1.0000000
B2   B   0.944312907452316   0.554991970584795   0.375000000000000   1.0000000
B2   B   0.777595769621342   0.055083018798546   0.375000000000000   1.0000000
B2   B   0.111116248200502   0.722236668402760   0.875000000000000   1.0000000
B2   B   0.444460765159840   0.722245260677865   0.875000000000000   1.0000000
B2   B   0.277755939741640   0.222210976292612   0.875000000000000   1.0000000
B2   B   0.777784489110374   0.722243002180072   0.875000000000000   1.0000000
B2   B   0.611121703217644   0.222210976292612   0.875000000000000   1.0000000
B2   B   0.944438509906448   0.222210353146231   0.875000000000000   1.0000000
B2   B   0.277780197883902   0.722243647671632   0.375000000000000   1.0000000
B2   B   0.109850770720999   0.221344188187194   0.375000000000000   1.0000000
B2   B   0.446236521065113   0.225806375463562   0.375000000000000   1.0000000
B2   B   0.612412186486689   0.722414528533622   0.375000000000000   1.0000000
B2   B   0.943990863099219   0.721500517278228   0.375000000000000   1.0000000
B2   B   0.778160084132866   0.221344188187194   0.375000000000000   1.0000000
B2   B   0.111098910508345   0.888885959348624   0.875000000000000   1.0000000
B2   B   0.444453715506951   0.888885959348624   0.875000000000000   1.0000000
B2   B   0.277777402912119   0.388907648704878   0.875000000000000   1.0000000
B2   B   0.611125580443890   0.388921391090915   0.875000000000000   1.0000000
B2   B   0.777777757149778   0.888888847632884   0.875000000000000   1.0000000
B2   B   0.944456522208093   0.388897013117529   0.875000000000000   1.0000000
B2   B   0.110964148345544   0.388377129690886   0.375000000000000   1.0000000
B2   B   0.278085672220680   0.889504677774689   0.375000000000000   1.0000000
B2   B   0.610911822291075   0.888691575727752   0.375000000000000   1.0000000
B2   B   0.944446420103350   0.888691575727752   0.375000000000000   1.0000000
B2   B   0.776937771447763   0.386913260514365   0.375000000000000   1.0000000
B2   B   0.277788791887744   0.555582274517284   0.875000000000000   1.0000000
B2   B   0.111083518795874   0.055538589134455   0.875000000000000   1.0000000
B2   B   0.611133743827567   0.555600820988461   0.875000000000000   1.0000000
B2   B   0.444442926428206   0.055533349467794   0.875000000000000   1.0000000
B2   B   0.944460149296203   0.555582274517284   0.875000000000000   1.0000000
B2   B   0.110965957729888   0.555265248793105   0.375000000000000   1.0000000
B2   B   0.777779884061357   0.055541485637222   0.875000000000000   1.0000000
B2   B   0.278824456482057   0.056986947533684   0.375000000000000   1.0000000
B2   B   0.443575419785817   0.553336776977389   0.375000000000000   1.0000000
B2   B   0.776428023858237   0.553336776977390   0.375000000000000   1.0000000
B2   B   0.611110798324055   0.055865365053453   0.375000000000000   1.0000000
B2   B   0.444472632038101   0.555601259472130   0.875000000000000   1.0000000
B2   B   0.944153915843868   0.055083018798546   0.375000000000000   1.0000000
B2   B   0.277787086868929   0.722236668402760   0.875000000000000   1.0000000
B2   B   0.111087255912633   0.222211135844911   0.875000000000000   1.0000000
B2   B   0.444437920107165   0.222209173547666   0.875000000000000   1.0000000
B2   B   0.611125179736370   0.722243002180072   0.875000000000000   1.0000000
B2   B   0.944451162184691   0.722245260677865   0.875000000000000   1.0000000
B2   B   0.777790546598950   0.222211135844911   0.875000000000000   1.0000000
B2   B   0.111130116454402   0.722243647671632   0.375000000000000   1.0000000
B2   B   0.444176320845673   0.721500517278228   0.375000000000000   1.0000000
B2   B   0.277215142937198   0.223269383989769   0.375000000000000   1.0000000
B2   B   0.776669008713606   0.722414528533622   0.375000000000000   1.0000000
B2   B   0.612720907719242   0.223269383989769   0.375000000000000   1.0000000
B2   B   0.944164819463896   0.221662972261127   0.375000000000000   1.0000000
B2   B   0.111107157576107   0.388897013117529   0.875000000000000   1.0000000
B2   B   0.277774323213090   0.888881979759509   0.875000000000000   1.0000000
B2   B   0.611122046969711   0.888889519169908   0.875000000000000   1.0000000
B2   B   0.444462477313695   0.388921391090915   0.875000000000000   1.0000000
B2   B   0.944434138866869   0.888889519169908   0.875000000000000   1.0000000
B2   B   0.111441600961973   0.889145970288157   0.375000000000000   1.0000000
B2   B   0.777796912459430   0.388907648704878   0.875000000000000   1.0000000
B2   B   0.444371035992855   0.889145970288157   0.375000000000000   1.0000000
B2   B   0.276642155733274   0.386913260514365   0.375000000000000   1.0000000
B2   B   0.277345729799143   0.554991970584795   0.375000000000000   1.0000000
B2   B   0.777859709331035   0.889052751995399   0.375000000000000   1.0000000
B2   B   0.944079648012014   0.388377129690886   0.375000000000000   1.0000000
B2   B   0.111120533834614   0.555574401002557   0.875000000000000   1.0000000
B2   B   0.277757089706252   0.055533349467794   0.875000000000000   1.0000000
B2   B   0.777795294100695   0.555601259472130   0.875000000000000   1.0000000
B2   B   0.611121737005252   0.055538589134455   0.875000000000000   1.0000000
B2   B   0.944428268242530   0.055541485637222   0.875000000000000   1.0000000
B2   B   0.055495583414257   0.111059027992896   0.124876401741256   1.0000000
B2   B   0.555638553006686   0.611133239838661   0.125031512601893   1.0000000
B2   B   0.388827916965368   0.110989167264078   0.124851461689418   1.0000000
B2   B   0.888922372994855   0.611149664975051   0.124913260695955   1.0000000
B2   B   0.722230111245302   0.111059027992896   0.124876401741256   1.0000000
B2   B   0.055536595414173   0.777740861172343   0.625087453528550   1.0000000
B2   B   0.388870932424834   0.777740861172343   0.625087453528550   1.0000000
B2   B   0.222133098811272   0.277773413696590   0.625206874439249   1.0000000
B2   B   0.722208929986062   0.777751193305458   0.625052653483895   1.0000000
B2   B   0.555617551083370   0.277825004560947   0.625538359565272   1.0000000
B2   B   0.888937361746435   0.277794803381553   0.625144296001686   1.0000000
B2   B   0.222200879255414   0.777735091844163   0.124906584180384   1.0000000
B2   B   0.055524108301782   0.277794803381553   0.124855703998313   1.0000000
B2   B   0.388874120144242   0.277825004560947   0.124461640434728   1.0000000
B2   B   0.555562920484714   0.777745762489349   0.124959628944593   1.0000000
B2   B   0.888849508671299   0.777745762489349   0.124959628944593   1.0000000
B2   B   0.722306981551982   0.277773413696590   0.124793125560751   1.0000000
B2   B   0.055502196193968   0.944366348374164   0.625094492823151   1.0000000
B2   B   0.388839568422366   0.944333239066054   0.625115055677508   1.0000000
B2   B   0.222176533893223   0.444509889841836   0.625129981100745   1.0000000
B2   B   0.555662317959721   0.444657969252769   0.625489895779853   1.0000000
B2   B   0.722211855260491   0.944406855437945   0.625089992959962   1.0000000
B2   B   0.889000022615278   0.444509889841836   0.625129981100745   1.0000000
B2   B   0.055582260934418   0.444497855202165   0.124881864537665   1.0000000
B2   B   0.222160337310352   0.944333239066054   0.124884944322492   1.0000000
B2   B   0.555530818846869   0.944366348374164   0.124905507176850   1.0000000
B2   B   0.388907975944461   0.444539467442374   0.124497449918819   1.0000000
B2   B   0.888861666844117   0.944406855437945   0.124910007040038   1.0000000
B2   B   0.722298158164577   0.444539467442374   0.124497449918819   1.0000000
B2   B   0.222215249078207   0.611143015670584   0.625100467450920   1.0000000
B2   B   0.055495583414257   0.111059027992896   0.625123598258744   1.0000000
B2   B   0.555638553006686   0.611133239838661   0.624968487398108   1.0000000
B2   B   0.388827916965368   0.110989167264078   0.625148538310583   1.0000000
B2   B   0.888922372994855   0.611149664975051   0.625086739304045   1.0000000
B2   B   0.055594433259042   0.611143015670584   0.124899532549080   1.0000000
B2   B   0.722230111245302   0.111059027992896   0.625123598258744   1.0000000
B2   B   0.222136329137173   0.111004848264699   0.124865682676051   1.0000000
B2   B   0.388893958646852   0.611149664975051   0.124913260695955   1.0000000
B2   B   0.722161353498640   0.611133239838661   0.125031512601893   1.0000000
B2   B   0.555535185794190   0.111004848264699   0.124865682676051   1.0000000
B2   B   0.388893958646852   0.611149664975051   0.625086739304045   1.0000000
B2   B   0.888877573658800   0.111088480650943   0.124884642152349   1.0000000
B2   B   0.222200879255414   0.777735091844163   0.625093415819617   1.0000000
B2   B   0.055524108301782   0.277794803381553   0.625144296001686   1.0000000
B2   B   0.388874120144242   0.277825004560947   0.625538359565272   1.0000000
B2   B   0.555562920484714   0.777745762489349   0.625040371055406   1.0000000
B2   B   0.888849508671299   0.777745762489349   0.625040371055406   1.0000000
B2   B   0.722306981551982   0.277773413696590   0.625206874439249   1.0000000
B2   B   0.055536595414173   0.777740861172343   0.124912546471450   1.0000000
B2   B   0.388870932424834   0.777740861172343   0.124912546471450   1.0000000
B2   B   0.222133098811272   0.277773413696590   0.124793125560751   1.0000000
B2   B   0.722208929986062   0.777751193305458   0.124947346516105   1.0000000
B2   B   0.555617551083370   0.277825004560947   0.124461640434728   1.0000000
B2   B   0.888937361746435   0.277794803381553   0.124855703998313   1.0000000
B2   B   0.055582260934418   0.444497855202165   0.625118135462336   1.0000000
B2   B   0.222160337310352   0.944333239066054   0.625115055677508   1.0000000
B2   B   0.555530818846869   0.944366348374164   0.625094492823151   1.0000000
B2   B   0.388907975944461   0.444539467442374   0.625502550081181   1.0000000
B2   B   0.888861666844117   0.944406855437945   0.625089992959962   1.0000000
B2   B   0.055502196193968   0.944366348374164   0.124905507176850   1.0000000
B2   B   0.722298158164577   0.444539467442374   0.625502550081181   1.0000000
B2   B   0.388839568422366   0.944333239066054   0.124884944322492   1.0000000
B2   B   0.222176533893223   0.444509889841836   0.124870018899256   1.0000000
B2   B   0.222215249078207   0.611143015670584   0.124899532549080   1.0000000
B2   B   0.555662317959721   0.444657969252769   0.124510104220146   1.0000000
B2   B   0.722211855260491   0.944406855437945   0.124910007040038   1.0000000
B2   B   0.889000022615278   0.444509889841836   0.124870018899256   1.0000000
B2   B   0.055594433259042   0.611143015670584   0.625100467450920   1.0000000
B2   B   0.222136329137173   0.111004848264699   0.625134317323949   1.0000000
B2   B   0.722161353498640   0.611133239838661   0.624968487398108   1.0000000
B2   B   0.555535185794190   0.111004848264699   0.625134317323949   1.0000000
B2   B   0.888877573658800   0.111088480650943   0.625115357847651   1.0000000


