data_1
_audit_creation_method   'vasp2cif'
_cell_length_a    17.52789999999977
_cell_length_b    17.52789999999977
_cell_length_c    15.0
_cell_angle_alpha    90.0
_cell_angle_beta    90.0
_cell_angle_gamma    119.99999999999916

_symmetry_space_group_name_H-M    'P 1'
loop_
_atom_site_label
_atom_site_type_symbol
_atom_site_fract_x
_atom_site_fract_y
_atom_site_fract_z
_atom_site_occupancy
B2   B   0.908785236769888   0.953810315438611   0.110733218602873   1.0000000
B2   B   0.908748235668914   0.095884616616071   0.110778165973878   1.0000000
B2   B   0.908751322920625   0.237972399508648   0.110738308484655   1.0000000
B2   B   0.908793863617315   0.380382472203432   0.110700997546645   1.0000000
B2   B   0.908210506536918   0.523032338796468   0.110741398164390   1.0000000
B2   B   0.907146835033944   0.665622310926396   0.110772266821823   1.0000000
B2   B   0.904250115137320   0.807321559608078   0.110713149580804   1.0000000
B2   B   0.050490849135094   0.953878276377373   0.110701155679596   1.0000000
B2   B   0.052511612020404   0.097526211824267   0.110775577933782   1.0000000
B2   B   0.051898836375543   0.239089763379887   0.110810864025197   1.0000000
B2   B   0.050928098708026   0.381281410229873   0.110746974497334   1.0000000
B2   B   0.049802338599313   0.524334042349380   0.110727357410682   1.0000000
B2   B   0.049350504250146   0.667504425140038   0.110748771875589   1.0000000
B2   B   0.049122137709859   0.810486816002593   0.110731649229520   1.0000000
B2   B   0.193346857308738   0.955055953435723   0.110700509280091   1.0000000
B2   B   0.196614513298410   0.100242376326246   0.110713053075468   1.0000000
B2   B   0.196518449052153   0.241903880457996   0.110744834907214   1.0000000
B2   B   0.193785177983705   0.382215422064507   0.110751463190465   1.0000000
B2   B   0.190932113208546   0.524994153753973   0.110744352746455   1.0000000
B2   B   0.190593243098912   0.668385169378253   0.110741519100702   1.0000000
B2   B   0.192007032573242   0.811530429145502   0.110730021518619   1.0000000
B2   B   0.335641678218852   0.954810402954740   0.110715797223147   1.0000000
B2   B   0.337590936762737   0.099017802351931   0.110727939226719   1.0000000
B2   B   0.344420595067841   0.248203222414888   0.110751559129091   1.0000000
B2   B   0.339986158593040   0.386240690206339   0.110749532859031   1.0000000
B2   B   0.331469716989075   0.526180865736124   0.110716122597213   1.0000000
B2   B   0.330766666907037   0.669140411960764   0.110728742454996   1.0000000
B2   B   0.334457379865220   0.811902395709026   0.110752207843534   1.0000000
B2   B   0.478153155195970   0.953480387293658   0.110749331153312   1.0000000
B2   B   0.479314272741741   0.095945201013446   0.110759074570344   1.0000000
B2   B   0.481378932663763   0.239412273429091   0.110778027625487   1.0000000
B2   B   0.498943095517942   0.396694566537018   0.110803289018648   1.0000000
B2   B   0.468694112184288   0.666596645233655   0.110775008306219   1.0000000
B2   B   0.477093548001807   0.810941855158773   0.110753803346353   1.0000000
B2   B   0.621225305180944   0.953933707188366   0.110760539842290   1.0000000
B2   B   0.622046441919149   0.094811338762793   0.110737736615439   1.0000000
B2   B   0.622964880613947   0.235480641414718   0.110751628155040   1.0000000
B2   B   0.624964822637786   0.375008268661859   0.110790928482118   1.0000000
B2   B   0.611558771929972   0.500631228783026   0.110797259284614   1.0000000
B2   B   0.620489546253763   0.813174165074758   0.110724519996362   1.0000000
B2   B   0.764943435329404   0.953243864439035   0.110744480879263   1.0000000
B2   B   0.765376807764525   0.095212073810960   0.110731120019738   1.0000000
B2   B   0.765921622503417   0.236950270400797   0.110710183881270   1.0000000
B2   B   0.766824048758833   0.378733735718509   0.110705952130252   1.0000000
B2   B   0.765649273558176   0.519925832640430   0.110760687529849   1.0000000
B2   B   0.760249909106973   0.657128012626380   0.110767239474864   1.0000000
B2   B   0.765330431328719   0.811568482915409   0.110710445438505   1.0000000
Al2   Al   0.614373186465838   0.658387690080169   0.110559622763778   1.0000000
N2   N   0.954431317022986   0.904338493555292   0.110689064457765   1.0000000
N2   N   0.957008134344174   0.049091327408956   0.110755556308947   1.0000000
N2   N   0.956487199376767   0.190863295450119   0.110770625058067   1.0000000
N2   N   0.956055491048693   0.332969026548889   0.110710680896081   1.0000000
N2   N   0.955422351189164   0.475596440881398   0.110703594403565   1.0000000
N2   N   0.954895028852333   0.618575772251368   0.110751703550860   1.0000000
N2   N   0.953709340211019   0.761381228630381   0.110727116425838   1.0000000
N2   N   0.097767669383184   0.906223338408920   0.110687250691199   1.0000000
N2   N   0.100050677367567   0.050125232509143   0.110711985682041   1.0000000
N2   N   0.100384659850203   0.192568150252564   0.110774479719046   1.0000000
N2   N   0.098399615251367   0.333859884662024   0.110766805217614   1.0000000
N2   N   0.096459909673118   0.476432481549056   0.110724403904065   1.0000000
N2   N   0.096065078873245   0.619770618510393   0.110720971605887   1.0000000
N2   N   0.096731909638085   0.763078614048766   0.110722701541558   1.0000000
N2   N   0.240253706414440   0.906988882795025   0.110695219005727   1.0000000
N2   N   0.242140353076966   0.050688877033158   0.110688687987637   1.0000000
N2   N   0.246359456471325   0.196516210128963   0.110712212697230   1.0000000
N2   N   0.243020087069480   0.336265950656205   0.110721297910502   1.0000000
N2   N   0.237202522464333   0.476877950156058   0.110718727460597   1.0000000
N2   N   0.236274627973778   0.620399144195225   0.110717091560748   1.0000000
N2   N   0.238976875599577   0.763919529391108   0.110732176180323   1.0000000
N2   N   0.382787248122430   0.907060219751460   0.110726391348148   1.0000000
N2   N   0.384001837181842   0.049889512659410   0.110719775133904   1.0000000
N2   N   0.386408393860989   0.194354762340786   0.110733083654190   1.0000000
N2   N   0.396158960999331   0.346004532197368   0.110755960153236   1.0000000
N2   N   0.378341158616696   0.479445361081124   0.110708312727912   1.0000000
N2   N   0.374667712186523   0.621255850485868   0.110725381374139   1.0000000
N2   N   0.381274953004211   0.764664678545000   0.110728812303022   1.0000000
N2   N   0.525757500496074   0.906359433464337   0.110739123516937   1.0000000
N2   N   0.526718845787700   0.048235371387822   0.110738142989471   1.0000000
N2   N   0.527933630556739   0.190187082071985   0.110753078595270   1.0000000
N2   N   0.530859979528637   0.332884284399886   0.110780175678095   1.0000000
N2   N   0.468631074164669   0.521843379887157   0.110736423270091   1.0000000
N2   N   0.503485362968169   0.611668388491384   0.110746662976678   1.0000000
N2   N   0.524213280116962   0.763660163841337   0.110737773464544   1.0000000
N2   N   0.669385537721077   0.907964685100537   0.110741313925777   1.0000000
N2   N   0.670057162287916   0.048398283498377   0.110719368128007   1.0000000
N2   N   0.670808924326317   0.188971129566461   0.110717549387911   1.0000000
N2   N   0.672478684838553   0.329080100111278   0.110724590077318   1.0000000
N2   N   0.672154819612629   0.468013936014944   0.110776439635798   1.0000000
N2   N   0.666051900156526   0.598149259666876   0.110720405561504   1.0000000
N2   N   0.672576165945839   0.772009704265008   0.110641244093866   1.0000000
N2   N   0.814171262475643   0.906915423379437   0.110728014126093   1.0000000
N2   N   0.813392210907555   0.048322312928788   0.110732399848964   1.0000000
N2   N   0.813634758250513   0.190030627989327   0.110705893784676   1.0000000
N2   N   0.814222195606537   0.331755818764098   0.110674098213080   1.0000000
N2   N   0.814111266917589   0.473709418558762   0.110709277249246   1.0000000
N2   N   0.812977938803058   0.615541455081052   0.110757554020897   1.0000000
N2   N   0.807875594250718   0.757285999077149   0.110710143210669   1.0000000


