data_1
_audit_creation_method   'vasp2cif'
_cell_length_a    17.52789999999977
_cell_length_b    17.52789999999977
_cell_length_c    15.0
_cell_angle_alpha    90.0
_cell_angle_beta    90.0
_cell_angle_gamma    119.99999999999916

_symmetry_space_group_name_H-M    'P 1'
loop_
_atom_site_label
_atom_site_type_symbol
_atom_site_fract_x
_atom_site_fract_y
_atom_site_fract_z
_atom_site_occupancy
B2   B   0.905821346176644   0.953887879601054   0.110961400843996   1.0000000
B2   B   0.908002963732109   0.098923470531892   0.110967456982168   1.0000000
B2   B   0.908084950780932   0.241865982241831   0.111064259539000   1.0000000
B2   B   0.906636575448697   0.383469199283323   0.111047150890939   1.0000000
B2   B   0.903065053582483   0.524323698873097   0.110985541980887   1.0000000
B2   B   0.900688975201687   0.665505194144492   0.110983304574697   1.0000000
B2   B   0.902655983419736   0.808513322431376   0.110982928798875   1.0000000
B2   B   0.046093541194491   0.949636475899493   0.110952346366461   1.0000000
B2   B   0.048367921373673   0.094836644343211   0.110931657035834   1.0000000
B2   B   0.051720015269163   0.240639558073964   0.111016221222993   1.0000000
B2   B   0.052882678784539   0.383455500813460   0.111076559797324   1.0000000
B2   B   0.051342557752213   0.524242939817596   0.111015765803798   1.0000000
B2   B   0.047730856260776   0.665066784620831   0.110972197982082   1.0000000
B2   B   0.046116540836438   0.806806422743554   0.110991097968993   1.0000000
B2   B   0.189224426847519   0.948291931208190   0.111042863110553   1.0000000
B2   B   0.187878931117522   0.089740821800661   0.110987439932854   1.0000000
B2   B   0.191351062381449   0.235323769730020   0.110937717579909   1.0000000
B2   B   0.198593344189294   0.383130072227312   0.111132681243262   1.0000000
B2   B   0.200765124855348   0.524554415327763   0.111082574833467   1.0000000
B2   B   0.195138773947882   0.665360749333831   0.110999048176775   1.0000000
B2   B   0.190932561458824   0.806717966140958   0.110987859635633   1.0000000
B2   B   0.333575041505450   0.949510903167445   0.111030586445249   1.0000000
B2   B   0.331787949965116   0.089720591424094   0.111027403172494   1.0000000
B2   B   0.328590522171551   0.227229747759365   0.110938549088150   1.0000000
B2   B   0.335805826452798   0.372579036185735   0.111224414493186   1.0000000
B2   B   0.354932252327095   0.527973352743796   0.111339550225405   1.0000000
B2   B   0.343679502992206   0.667280843927104   0.111032706651560   1.0000000
B2   B   0.336078318826564   0.808324864211092   0.110946460201073   1.0000000
B2   B   0.478034852641868   0.953710162446348   0.110929667415430   1.0000000
B2   B   0.476349714866724   0.094752462486592   0.110976965319034   1.0000000
B2   B   0.473858513734874   0.235313067315263   0.111022607225415   1.0000000
B2   B   0.466772050111296   0.372655351907837   0.111258236184624   1.0000000
B2   B   0.496708110456593   0.674749816360905   0.111073054938945   1.0000000
B2   B   0.480540629063305   0.812836695186856   0.110960472619114   1.0000000
B2   B   0.622164705424135   0.957835681253083   0.110927423618860   1.0000000
B2   B   0.620699915741317   0.098888543303709   0.110933073653534   1.0000000
B2   B   0.618707651960347   0.240684841256772   0.110966970727849   1.0000000
B2   B   0.614494812763352   0.383227073374707   0.111133273412987   1.0000000
B2   B   0.603315837219118   0.528130882517298   0.111323793082740   1.0000000
B2   B   0.608571040794458   0.674856370565363   0.111068203121380   1.0000000
B2   B   0.624452523748367   0.818645686253130   0.110956663173851   1.0000000
B2   B   0.765710086996811   0.957899352616258   0.110945772070660   1.0000000
B2   B   0.764883456107591   0.099992138544835   0.110964164797605   1.0000000
B2   B   0.763433657997507   0.241883055116000   0.111015281156416   1.0000000
B2   B   0.760469782400868   0.383572687656839   0.111014673122427   1.0000000
B2   B   0.754028644445177   0.524731841390869   0.111062644634327   1.0000000
B2   B   0.754046967228004   0.667471311621653   0.111024279019288   1.0000000
B2   B   0.762655639831835   0.812994537734757   0.110980513079179   1.0000000
C2   C   0.410636666570592   0.473342500301122   0.111600615348774   1.0000000
C2   C   0.492924608892416   0.473405091962720   0.111551064478562   1.0000000
N2   N   0.951120921698149   0.903713252228534   0.110935981418185   1.0000000
N2   N   0.953632657849640   0.049112738452351   0.110930158545167   1.0000000
N2   N   0.956087607358227   0.194201355583063   0.111016383826333   1.0000000
N2   N   0.956338789213357   0.336946634602178   0.111063546260034   1.0000000
N2   N   0.954149770929342   0.478267064637223   0.110987062300627   1.0000000
N2   N   0.950894271693371   0.619054440263216   0.110961748762674   1.0000000
N2   N   0.950120411366238   0.760429690300571   0.110969155268017   1.0000000
N2   N   0.093784464007278   0.901673639926328   0.110978809694743   1.0000000
N2   N   0.093391418066584   0.044404860572620   0.110938942387948   1.0000000
N2   N   0.096610981051812   0.190201047169872   0.110916963686560   1.0000000
N2   N   0.101792825102471   0.336496226761769   0.111049153213090   1.0000000
N2   N   0.102631138894249   0.478424675915446   0.111029670859446   1.0000000
N2   N   0.098457903624349   0.618975108580148   0.110972603522992   1.0000000
N2   N   0.095090529591726   0.759869878972455   0.110969684291719   1.0000000
N2   N   0.238011744997265   0.901582197290796   0.111021757236741   1.0000000
N2   N   0.236405882144416   0.042826467028999   0.111045451135996   1.0000000
N2   N   0.234631342482587   0.183685459050471   0.110904757875844   1.0000000
N2   N   0.241592425062810   0.331110687272775   0.111052230364404   1.0000000
N2   N   0.253494706019186   0.479271920529790   0.111182213409127   1.0000000
N2   N   0.246838040819080   0.619568038707788   0.111008144284835   1.0000000
N2   N   0.240573352981714   0.760292625062838   0.110949131810918   1.0000000
N2   N   0.382631761877088   0.903525701694374   0.110950403714492   1.0000000
N2   N   0.380914789690278   0.044316209851392   0.111025624943172   1.0000000
N2   N   0.378943942317647   0.183673142952905   0.110977768177996   1.0000000
N2   N   0.374427464926347   0.318866799102991   0.110977515717114   1.0000000
N2   N   0.398416477277205   0.622877465856896   0.111096357759792   1.0000000
N2   N   0.385836970110082   0.762332932183093   0.110939829322431   1.0000000
N2   N   0.526985969282630   0.907991841004970   0.110910633388082   1.0000000
N2   N   0.525270458844639   0.048964239423077   0.110915033292947   1.0000000
N2   N   0.523396816780630   0.190132354264360   0.110958050333528   1.0000000
N2   N   0.519456850670985   0.331145013611951   0.111118490201774   1.0000000
N2   N   0.530373284086135   0.768213070268517   0.110954120715485   1.0000000
N2   N   0.671076580183241   0.912120316324985   0.110904088767597   1.0000000
N2   N   0.669452642043350   0.052602966262727   0.110910371289097   1.0000000
N2   N   0.667803090209706   0.194187031132155   0.110941959061717   1.0000000
N2   N   0.664591232206696   0.336554941175173   0.111000288938980   1.0000000
N2   N   0.655957962673820   0.479395216042329   0.111177263661212   1.0000000
N2   N   0.654943340126077   0.623057207349799   0.111099030831226   1.0000000
N2   N   0.668246828735130   0.768340380851893   0.110957712542226   1.0000000
N2   N   0.811179261786663   0.908167640311364   0.110954321311450   1.0000000
N2   N   0.812987965228745   0.052669045391847   0.110936644975622   1.0000000
N2   N   0.812333981488283   0.195023852052006   0.111021960304273   1.0000000
N2   N   0.810387267341310   0.336979836326960   0.111008383364692   1.0000000
N2   N   0.805911213868379   0.478534609706685   0.110980028122411   1.0000000
N2   N   0.803183772805391   0.619755860923519   0.110992623328660   1.0000000
N2   N   0.806941246591932   0.762538923755353   0.110967995062009   1.0000000


