data_1
_audit_creation_method   'vasp2cif'
_cell_length_a    17.52789999999977
_cell_length_b    17.52789999999977
_cell_length_c    15.0
_cell_angle_alpha    90.0
_cell_angle_beta    90.0
_cell_angle_gamma    119.99999999999916

_symmetry_space_group_name_H-M    'P 1'
loop_
_atom_site_label
_atom_site_type_symbol
_atom_site_fract_x
_atom_site_fract_y
_atom_site_fract_z
_atom_site_occupancy
B2   B   0.905758091559181   0.953843957654353   0.111027303223854   1.0000000
B2   B   0.906136949903129   0.096840192511717   0.111122384926667   1.0000000
B2   B   0.905607771696005   0.239162163868007   0.111137656983138   1.0000000
B2   B   0.903803838631032   0.381073169032979   0.110969517040067   1.0000000
B2   B   0.901389778269829   0.522946502595934   0.110935819289435   1.0000000
B2   B   0.902448415155285   0.665626114654526   0.111005538119816   1.0000000
B2   B   0.904386405010411   0.809818191376266   0.111044991076120   1.0000000
B2   B   0.047132701970471   0.951745373225562   0.111007257706168   1.0000000
B2   B   0.049215141679609   0.096417935780546   0.111034134070164   1.0000000
B2   B   0.050059130950299   0.239401861954477   0.111092258031372   1.0000000
B2   B   0.049263434492088   0.381305857124420   0.110983415460916   1.0000000
B2   B   0.046926021653209   0.522961919641257   0.110935740722570   1.0000000
B2   B   0.045751265149726   0.665113791702368   0.110971391307083   1.0000000
B2   B   0.045913015871922   0.807856108588606   0.110997228026180   1.0000000
B2   B   0.188530741224568   0.949543262901328   0.111058796114064   1.0000000
B2   B   0.189859995302083   0.093266678902832   0.111069694476257   1.0000000
B2   B   0.193987812218292   0.239357920437062   0.111074808647975   1.0000000
B2   B   0.195130296267124   0.381885797149514   0.111022898299753   1.0000000
B2   B   0.192659611981235   0.523490029221200   0.110992060423917   1.0000000
B2   B   0.189576049694440   0.665373111662278   0.111036820480756   1.0000000
B2   B   0.188863562210271   0.807422186325325   0.111021091987296   1.0000000
B2   B   0.331748587585936   0.949546089391727   0.111043891411988   1.0000000
B2   B   0.330667539189024   0.090121283632358   0.111069976976484   1.0000000
B2   B   0.333197383376961   0.232959624045698   0.111084611948873   1.0000000
B2   B   0.343060340109836   0.383216155198627   0.111012064197791   1.0000000
B2   B   0.339380020829178   0.525685611124536   0.110985771618151   1.0000000
B2   B   0.333279683194850   0.666650370544219   0.111106523068311   1.0000000
B2   B   0.332432429106959   0.808249965837895   0.111070907737943   1.0000000
B2   B   0.475526811406785   0.951502059170886   0.111023248430816   1.0000000
B2   B   0.474592641697561   0.092606139802885   0.111020633940818   1.0000000
B2   B   0.471386420888130   0.231926200916245   0.111011254929626   1.0000000
B2   B   0.476265235896408   0.668288951428499   0.111013680849210   1.0000000
B2   B   0.476088777525129   0.809886397059253   0.111094742868302   1.0000000
B2   B   0.619229747965480   0.953707746781716   0.111008009691781   1.0000000
B2   B   0.618619970916713   0.095730296163573   0.111022455808450   1.0000000
B2   B   0.617049616816052   0.237886804535578   0.111004614681178   1.0000000
B2   B   0.612854661285451   0.381037907461836   0.110967736180309   1.0000000
B2   B   0.612891136162427   0.529231659384042   0.111019395949703   1.0000000
B2   B   0.621048786926345   0.671367007525307   0.111009880733697   1.0000000
B2   B   0.619636727705996   0.812084690850506   0.111039309942269   1.0000000
B2   B   0.762821472783890   0.954316479109946   0.111027999042907   1.0000000
B2   B   0.762411041638240   0.096644196476152   0.111108623995019   1.0000000
B2   B   0.761201231025562   0.238862989344317   0.111095510096300   1.0000000
B2   B   0.758490805343227   0.380967475719682   0.110978694214493   1.0000000
B2   B   0.755581524722492   0.523544759291782   0.111020429018376   1.0000000
B2   B   0.761329193211556   0.668129017903751   0.111119339317338   1.0000000
B2   B   0.762949540946164   0.811835496115235   0.111067967491516   1.0000000
C2   C   0.487977203511528   0.530508030139162   0.110798571425382   1.0000000
N2   N   0.951959603007246   0.904809744880370   0.110992412057468   1.0000000
N2   N   0.953728878437042   0.049065423781852   0.111032470582615   1.0000000
N2   N   0.954290218284542   0.192160800368054   0.111130259045060   1.0000000
N2   N   0.953268337013233   0.334398418028249   0.111008171359323   1.0000000
N2   N   0.950731435644247   0.476128113377947   0.110901331180841   1.0000000
N2   N   0.949810218272203   0.617931317540496   0.110943550630785   1.0000000
N2   N   0.950348410462205   0.760678677467756   0.110990611647080   1.0000000
N2   N   0.093510082910513   0.902885787706232   0.111004467721109   1.0000000
N2   N   0.095081632902530   0.047083281877193   0.111000429103856   1.0000000
N2   N   0.098268673066705   0.192264730939663   0.111053962822333   1.0000000
N2   N   0.099154802298039   0.334932274435699   0.111018453243354   1.0000000
N2   N   0.096865228593043   0.476377152430125   0.110928536326111   1.0000000
N2   N   0.094199110233992   0.617928930535300   0.110962445650534   1.0000000
N2   N   0.093437043102725   0.760079139025175   0.110980097265933   1.0000000
N2   N   0.236484673167923   0.902268516356186   0.111021925145491   1.0000000
N2   N   0.236062128148437   0.044415091175896   0.111063257386186   1.0000000
N2   N   0.238311482127622   0.188907537528890   0.111064674944001   1.0000000
N2   N   0.245581712236872   0.336244748881774   0.111039810313778   1.0000000
N2   N   0.244000861849571   0.477308539238203   0.110977528020331   1.0000000
N2   N   0.238669708121135   0.618367582812541   0.111043288818332   1.0000000
N2   N   0.237164461232388   0.760240665343551   0.111032512385377   1.0000000
N2   N   0.380198091542959   0.902968524436605   0.111019480157088   1.0000000
N2   N   0.379397692323938   0.044246220961241   0.111032556651780   1.0000000
N2   N   0.377914694482912   0.184311717521739   0.111059117341356   1.0000000
N2   N   0.377526220082403   0.326332316714382   0.111022776245025   1.0000000
N2   N   0.397087143257377   0.482011816623674   0.110887467801074   1.0000000
N2   N   0.382806685301097   0.619508917900827   0.111047460180220   1.0000000
N2   N   0.380957269241963   0.761175644147738   0.111103268200524   1.0000000
N2   N   0.523812671541986   0.904586679358356   0.111014563366765   1.0000000
N2   N   0.523249219873075   0.046511737195563   0.110988839539655   1.0000000
N2   N   0.522091633403446   0.187759158184982   0.110998121752750   1.0000000
N2   N   0.520991553975366   0.324502080016278   0.110816389480491   1.0000000
N2   N   0.524197377414273   0.618646909960722   0.110876939146274   1.0000000
N2   N   0.524334847813548   0.762302082936760   0.111057476795048   1.0000000
N2   N   0.667168647813066   0.906310568910892   0.110987689430735   1.0000000
N2   N   0.666864449992621   0.048659434663520   0.111017011123450   1.0000000
N2   N   0.665778431041825   0.191166195970661   0.111028441150794   1.0000000
N2   N   0.662637822690658   0.333886267311845   0.110967164293324   1.0000000
N2   N   0.655451440799797   0.477003257944319   0.111018226933132   1.0000000
N2   N   0.664682484752178   0.621397670211135   0.111078514484366   1.0000000
N2   N   0.667011797992026   0.764240288574405   0.111033419149572   1.0000000
N2   N   0.810200850960664   0.906339886373793   0.111014697957826   1.0000000
N2   N   0.810489900581759   0.049228833244206   0.111082743520282   1.0000000
N2   N   0.809899895718708   0.191862137446853   0.111140070273602   1.0000000
N2   N   0.807776651926364   0.334232421681340   0.111001059684305   1.0000000
N2   N   0.804350169191628   0.476307894450715   0.110944989073029   1.0000000
N2   N   0.805847238178165   0.618387128521814   0.111042702531939   1.0000000
N2   N   0.808715343304916   0.762625802495474   0.111084407210138   1.0000000


