data_1
_audit_creation_method   'vasp2cif'
_cell_length_a    14.93631414619966
_cell_length_b    14.936314146199727
_cell_length_c    13.341276283792837
_cell_angle_alpha    90.0
_cell_angle_beta    90.0
_cell_angle_gamma    119.99999999999984

_symmetry_space_group_name_H-M    'P 1'
loop_
_atom_site_label
_atom_site_type_symbol
_atom_site_fract_x
_atom_site_fract_y
_atom_site_fract_z
_atom_site_occupancy
C2   C   0.390709551642717   0.441252470375851   0.375000000000000   1.0000000
C2   C   0.442362312379794   0.384724624759588   0.375000000000000   1.0000000
C2   C   0.550542918733134   0.441252470375851   0.375000000000000   1.0000000
N2   N   0.111092729571348   0.055520233590041   0.125007007082951   1.0000000
N2   N   0.611048170867219   0.555485675542064   0.125583353682030   1.0000000
N2   N   0.444427504018693   0.055520233590041   0.125007007082951   1.0000000
N2   N   0.944439665905953   0.555555327879501   0.125000078737878   1.0000000
N2   N   0.777774209883985   0.055548419767970   0.124929737513522   1.0000000
N2   N   0.111102587754526   0.722205175509044   0.625054294501598   1.0000000
N2   N   0.444429515643876   0.722182159100589   0.624918720005162   1.0000000
N2   N   0.277754978567971   0.222177021184601   0.624897772620861   1.0000000
N2   N   0.777752643456713   0.722182159100589   0.624918720005162   1.0000000
N2   N   0.611087083128854   0.222199953584968   0.624945905219938   1.0000000
N2   N   0.944454378339088   0.222228910497729   0.625042455634117   1.0000000
N2   N   0.277771838870200   0.722197114188072   0.124981712609177   1.0000000
N2   N   0.111112870456122   0.222199953584968   0.125054094780062   1.0000000
N2   N   0.444422042616630   0.222177021184601   0.125102227379140   1.0000000
N2   N   0.611097675430807   0.722195350861606   0.125047277608621   1.0000000
N2   N   0.944425275317872   0.722197114188072   0.124981712609177   1.0000000
N2   N   0.777774532158641   0.222228910497729   0.124957544365883   1.0000000
N2   N   0.111094890642659   0.888857066039274   0.625053784462211   1.0000000
N2   N   0.444428114085096   0.888859631356940   0.625058320035463   1.0000000
N2   N   0.277788661715153   0.388858358410666   0.624706253085575   1.0000000
N2   N   0.611069696695520   0.388858358410666   0.624706253085575   1.0000000
N2   N   0.777769154908758   0.888869320297667   0.625064644417855   1.0000000
N2   N   0.944448720809051   0.388897441618103   0.625064529591045   1.0000000
N2   N   0.111119239797744   0.388889533617677   0.125016164827952   1.0000000
N2   N   0.277762175396622   0.888857066039274   0.124946215537789   1.0000000
N2   N   0.611100165388916   0.888869320297667   0.124935355582146   1.0000000
N2   N   0.444399640259321   0.388799280518641   0.124260956554360   1.0000000
N2   N   0.944431517271843   0.888859631356940   0.124941679964537   1.0000000
N2   N   0.777770293819940   0.388889533617677   0.125016164827952   1.0000000
N2   N   0.277788035838851   0.555523626076741   0.624768791661726   1.0000000
N2   N   0.111092729571348   0.055520233590041   0.624992992917050   1.0000000
N2   N   0.611048170867219   0.555485675542064   0.624416646317971   1.0000000
N2   N   0.444427504018693   0.055520233590041   0.624992992917050   1.0000000
N2   N   0.944439665905953   0.555555327879501   0.624999921262123   1.0000000
N2   N   0.111115661973549   0.555555327879501   0.125000078737878   1.0000000
N2   N   0.777774209883985   0.055548419767970   0.625070262486478   1.0000000
N2   N   0.277754427831432   0.055508855662863   0.125014126124126   1.0000000
N2   N   0.444437504674845   0.555485675542064   0.125583353682030   1.0000000
N2   N   0.777735590237889   0.555523626076741   0.125231208338274   1.0000000
N2   N   0.611095577023244   0.055537319219581   0.124937601036024   1.0000000
N2   N   0.444437504674845   0.555485675542064   0.624416646317971   1.0000000
N2   N   0.944441742196337   0.055537319219581   0.124937601036024   1.0000000
N2   N   0.277771838870200   0.722197114188072   0.625018287390823   1.0000000
N2   N   0.111112870456122   0.222199953584968   0.624945905219938   1.0000000
N2   N   0.444422042616630   0.222177021184601   0.624897772620861   1.0000000
N2   N   0.611097675430807   0.722195350861606   0.624952722391378   1.0000000
N2   N   0.944425275317872   0.722197114188072   0.625018287390823   1.0000000
N2   N   0.777774532158641   0.222228910497729   0.625042455634117   1.0000000
N2   N   0.111102587754526   0.722205175509044   0.124945705498402   1.0000000
N2   N   0.444429515643876   0.722182159100589   0.125081279994838   1.0000000
N2   N   0.277754978567971   0.222177021184601   0.125102227379140   1.0000000
N2   N   0.777752643456713   0.722182159100589   0.125081279994838   1.0000000
N2   N   0.611087083128854   0.222199953584968   0.125054094780062   1.0000000
N2   N   0.944454378339088   0.222228910497729   0.124957544365883   1.0000000
N2   N   0.111119239797744   0.388889533617677   0.624983835172048   1.0000000
N2   N   0.277762175396622   0.888857066039274   0.625053784462211   1.0000000
N2   N   0.611100165388916   0.888869320297667   0.625064644417855   1.0000000
N2   N   0.444399640259321   0.388799280518641   0.625739043445641   1.0000000
N2   N   0.944431517271843   0.888859631356940   0.625058320035463   1.0000000
N2   N   0.111094890642659   0.888857066039274   0.124946215537789   1.0000000
N2   N   0.777770293819940   0.388889533617677   0.624983835172048   1.0000000
N2   N   0.444428114085096   0.888859631356940   0.124941679964537   1.0000000
N2   N   0.277788661715153   0.388858358410666   0.125293746914425   1.0000000
N2   N   0.277788035838851   0.555523626076741   0.125231208338274   1.0000000
N2   N   0.611069696695520   0.388858358410666   0.125293746914425   1.0000000
N2   N   0.777769154908758   0.888869320297667   0.124935355582146   1.0000000
N2   N   0.944448720809051   0.388897441618103   0.124935470408955   1.0000000
N2   N   0.111115661973549   0.555555327879501   0.624999921262123   1.0000000
N2   N   0.277754427831432   0.055508855662863   0.624985873875875   1.0000000
N2   N   0.777735590237889   0.555523626076741   0.624768791661726   1.0000000
N2   N   0.611095577023244   0.055537319219581   0.625062398963977   1.0000000
N2   N   0.944441742196337   0.055537319219581   0.625062398963977   1.0000000
N2   N   0.054880456209124   0.110329946720094   0.375000000000000   1.0000000
N2   N   0.558502845511548   0.617005691023096   0.375000000000000   1.0000000
N2   N   0.388812734446638   0.111319351661940   0.375000000000000   1.0000000
N2   N   0.888203234295153   0.610774987146124   0.375000000000000   1.0000000
N2   N   0.722295943027390   0.111182107799648   0.375000000000000   1.0000000
N2   N   0.055555370067590   0.777780700735744   0.875000000000000   1.0000000
N2   N   0.388893693613751   0.777791401517601   0.875000000000000   1.0000000
N2   N   0.222226183531722   0.277787643687726   0.875000000000000   1.0000000
N2   N   0.722229830350750   0.777787721397702   0.875000000000000   1.0000000
N2   N   0.555561460156004   0.277787643687726   0.875000000000000   1.0000000
N2   N   0.888890959394089   0.277781918788185   0.875000000000000   1.0000000
N2   N   0.222168010409177   0.777579788533259   0.375000000000000   1.0000000
N2   N   0.054946664781187   0.277377336801863   0.375000000000000   1.0000000
N2   N   0.389224432508587   0.278448865017181   0.375000000000000   1.0000000
N2   N   0.556101858271466   0.779887097385654   0.375000000000000   1.0000000
N2   N   0.889325919521161   0.778266768263651   0.375000000000000   1.0000000
N2   N   0.722430672020675   0.277377336801863   0.375000000000000   1.0000000
N2   N   0.055561519621543   0.944454797085301   0.875000000000000   1.0000000
N2   N   0.388893277463758   0.944454797085301   0.875000000000000   1.0000000
N2   N   0.222219311629816   0.444451645937822   0.875000000000000   1.0000000
N2   N   0.555564437042175   0.444459798378897   0.875000000000000   1.0000000
N2   N   0.722228463848122   0.944456927696244   0.875000000000000   1.0000000
N2   N   0.888895026962389   0.444449525488978   0.875000000000000   1.0000000
N2   N   0.055198785816829   0.444321997805190   0.375000000000000   1.0000000
N2   N   0.222197667185828   0.944395334371656   0.375000000000000   1.0000000
N2   N   0.555542614677566   0.944910737465375   0.375000000000000   1.0000000
N2   N   0.889368122787809   0.944910737465375   0.375000000000000   1.0000000
N2   N   0.722631211402812   0.443603938324202   0.375000000000000   1.0000000
N2   N   0.222224291403649   0.611113379611204   0.875000000000000   1.0000000
N2   N   0.055553395203857   0.111111817047462   0.875000000000000   1.0000000
N2   N   0.555563009903045   0.611126019806091   0.875000000000000   1.0000000
N2   N   0.388893287460775   0.111117051667471   0.875000000000000   1.0000000
N2   N   0.888889088207548   0.611113379611204   0.875000000000000   1.0000000
N2   N   0.055478480262655   0.610956960525310   0.375000000000000   1.0000000
N2   N   0.722222925392474   0.111116476231504   0.875000000000000   1.0000000
N2   N   0.222506617215295   0.111319351661940   0.375000000000000   1.0000000
N2   N   0.389983080549099   0.612036381708948   0.375000000000000   1.0000000
N2   N   0.722053301159842   0.612036381708948   0.375000000000000   1.0000000
N2   N   0.555449490510971   0.110329946720094   0.375000000000000   1.0000000
N2   N   0.388895400935431   0.611116856513673   0.875000000000000   1.0000000
N2   N   0.888886164772250   0.111182107799648   0.375000000000000   1.0000000
N2   N   0.222225330668155   0.777780700735744   0.875000000000000   1.0000000
N2   N   0.055557253209894   0.277780114104869   0.875000000000000   1.0000000
N2   N   0.388890900610099   0.277781801220204   0.875000000000000   1.0000000
N2   N   0.555557891046952   0.777787721397702   0.875000000000000   1.0000000
N2   N   0.888897707903843   0.777791401517601   0.875000000000000   1.0000000
N2   N   0.722222860894975   0.277780114104869   0.875000000000000   1.0000000
N2   N   0.055411778124082   0.777579788533259   0.375000000000000   1.0000000
N2   N   0.388940848742482   0.778266768263651   0.375000000000000   1.0000000
N2   N   0.219870499877506   0.275740478075189   0.375000000000000   1.0000000
N2   N   0.723785239114188   0.779887097385654   0.375000000000000   1.0000000
N2   N   0.555869978197684   0.275740478075189   0.375000000000000   1.0000000
N2   N   0.888844672398423   0.277689344796853   0.375000000000000   1.0000000
N2   N   0.055554498526589   0.444449525488978   0.875000000000000   1.0000000
N2   N   0.222223790493350   0.944447580986700   0.875000000000000   1.0000000
N2   N   0.555558353660656   0.944450811822044   0.875000000000000   1.0000000
N2   N   0.388895361336722   0.444459798378897   0.875000000000000   1.0000000
N2   N   0.888892458161388   0.944450811822044   0.875000000000000   1.0000000
N2   N   0.055855130949333   0.944586663712065   0.375000000000000   1.0000000
N2   N   0.722232334308007   0.444451645937822   0.875000000000000   1.0000000
N2   N   0.388731532762732   0.944586663712065   0.375000000000000   1.0000000
N2   N   0.220972726921391   0.443603938324202   0.375000000000000   1.0000000
N2   N   0.222571752850965   0.610774987146124   0.375000000000000   1.0000000
N2   N   0.722637025301970   0.945274050603940   0.375000000000000   1.0000000
N2   N   0.889123211988360   0.444321997805190   0.375000000000000   1.0000000
N2   N   0.055557012531936   0.611114025063873   0.875000000000000   1.0000000
N2   N   0.222223764206689   0.111117051667471   0.875000000000000   1.0000000
N2   N   0.722221455578235   0.611116856513673   0.875000000000000   1.0000000
N2   N   0.555558421843606   0.111111817047462   0.875000000000000   1.0000000
N2   N   0.888893550839022   0.111116476231504   0.875000000000000   1.0000000
B2   B   0.110861722859796   0.055293847876973   0.375000000000000   1.0000000
B2   B   0.612409650540643   0.561395561286122   0.375000000000000   1.0000000
B2   B   0.444432125017177   0.055293847876973   0.375000000000000   1.0000000
B2   B   0.944385538648673   0.555357227768218   0.375000000000000   1.0000000
B2   B   0.777975547653685   0.055951095307370   0.375000000000000   1.0000000
B2   B   0.111209784136259   0.722419568272510   0.875000000000000   1.0000000
B2   B   0.444554538315348   0.722160461446091   0.875000000000000   1.0000000
B2   B   0.277577530117485   0.222112670567953   0.875000000000000   1.0000000
B2   B   0.777605923130742   0.722160461446091   0.875000000000000   1.0000000
B2   B   0.611225480847193   0.222403654720934   0.875000000000000   1.0000000
B2   B   0.944529670110789   0.222118892556540   0.875000000000000   1.0000000
B2   B   0.277853522519299   0.722292792223868   0.375000000000000   1.0000000
B2   B   0.108546648758160   0.220365211425779   0.375000000000000   1.0000000
B2   B   0.445033697158902   0.221436056090216   0.375000000000000   1.0000000
B2   B   0.613557462751093   0.727114925502177   0.375000000000000   1.0000000
B2   B   0.944439269704569   0.722292792223868   0.375000000000000   1.0000000
B2   B   0.778059818292107   0.221908225325786   0.375000000000000   1.0000000
B2   B   0.110915464148668   0.888792478424308   0.875000000000000   1.0000000
B2   B   0.444549398633985   0.889095496020026   0.875000000000000   1.0000000
B2   B   0.277844514337406   0.388794576252861   0.875000000000000   1.0000000
B2   B   0.610950061915462   0.388794576252861   0.875000000000000   1.0000000
B2   B   0.777889115559379   0.888816035516912   0.875000000000000   1.0000000
B2   B   0.944540004182261   0.389080008364521   0.875000000000000   1.0000000
B2   B   0.109711465950035   0.388350888724978   0.375000000000000   1.0000000
B2   B   0.277674085512180   0.888719182697280   0.375000000000000   1.0000000
B2   B   0.611710746798068   0.890540209498345   0.375000000000000   1.0000000
B2   B   0.944828371006265   0.889365016276094   0.375000000000000   1.0000000
B2   B   0.778639422774950   0.388350888724978   0.375000000000000   1.0000000
B2   B   0.277859121329189   0.555756043937996   0.875000000000000   1.0000000
B2   B   0.111193122678370   0.055448831841826   0.875000000000000   1.0000000
B2   B   0.611229360046448   0.555502075761491   0.875000000000000   1.0000000
B2   B   0.444255709163456   0.055448831841826   0.875000000000000   1.0000000
B2   B   0.944259141790814   0.555460808278373   0.875000000000000   1.0000000
B2   B   0.110971689119545   0.555357227768218   0.375000000000000   1.0000000
B2   B   0.777878940629174   0.055757881258348   0.875000000000000   1.0000000
B2   B   0.277567042383611   0.055134084767221   0.375000000000000   1.0000000
B2   B   0.448985910745478   0.561395561286122   0.375000000000000   1.0000000
B2   B   0.777564545833832   0.555366977265368   0.375000000000000   1.0000000
B2   B   0.611348332564187   0.055412475144970   0.375000000000000   1.0000000
B2   B   0.444272715715043   0.555502075761491   0.875000000000000   1.0000000
B2   B   0.944064142580784   0.055412475144970   0.375000000000000   1.0000000
B2   B   0.277586187685301   0.722140028494707   0.875000000000000   1.0000000
B2   B   0.111178173873749   0.222403654720934   0.875000000000000   1.0000000
B2   B   0.444535140450467   0.222112670567953   0.875000000000000   1.0000000
B2   B   0.611223518937252   0.722447037874497   0.875000000000000   1.0000000
B2   B   0.944553840809406   0.722140028494707   0.875000000000000   1.0000000
B2   B   0.777589222445751   0.222118892556540   0.875000000000000   1.0000000
B2   B   0.111036094617250   0.722072189234493   0.375000000000000   1.0000000
B2   B   0.445176974945580   0.723983694500997   0.375000000000000   1.0000000
B2   B   0.276402358931313   0.221436056090216   0.375000000000000   1.0000000
B2   B   0.778806719555416   0.723983694500997   0.375000000000000   1.0000000
B2   B   0.611818562667626   0.220365211425779   0.375000000000000   1.0000000
B2   B   0.943848407033680   0.221908225325786   0.375000000000000   1.0000000
B2   B   0.110900284788403   0.388792470178722   0.875000000000000   1.0000000
B2   B   0.277877014275647   0.888792478424308   0.875000000000000   1.0000000
B2   B   0.610926919957540   0.888816035516912   0.875000000000000   1.0000000
B2   B   0.444535866588097   0.389071733176193   0.875000000000000   1.0000000
B2   B   0.944546097386041   0.889095496020026   0.875000000000000   1.0000000
B2   B   0.111045097185107   0.888719182697280   0.375000000000000   1.0000000
B2   B   0.777892185390326   0.388792470178722   0.875000000000000   1.0000000
B2   B   0.444536645269829   0.889365016276094   0.375000000000000   1.0000000
B2   B   0.272042793993403   0.385015406739280   0.375000000000000   1.0000000
B2   B   0.277802431431536   0.555366977265368   0.375000000000000   1.0000000
B2   B   0.612972612745884   0.385015406739280   0.375000000000000   1.0000000
B2   B   0.778829462700285   0.890540209498345   0.375000000000000   1.0000000
B2   B   0.944327748813187   0.388655497626374   0.375000000000000   1.0000000
B2   B   0.111201666487559   0.555460808278373   0.875000000000000   1.0000000
B2   B   0.277868373178440   0.055736746356880   0.875000000000000   1.0000000
B2   B   0.777896922608807   0.555756043937996   0.875000000000000   1.0000000
B2   B   0.611217367957764   0.055459250684686   0.875000000000000   1.0000000
B2   B   0.944241882726922   0.055459250684686   0.875000000000000   1.0000000
B2   B   0.055481440260170   0.111015517904114   0.125096565542223   1.0000000
B2   B   0.555618203550649   0.611236407101297   0.125326389612710   1.0000000
B2   B   0.388820448019769   0.110938466723256   0.125037255697242   1.0000000
B2   B   0.888985237901636   0.611153501248747   0.125096173300237   1.0000000
B2   B   0.722219710062706   0.111088486792312   0.125047293876646   1.0000000
B2   B   0.055567156012566   0.777762755134108   0.624946423835792   1.0000000
B2   B   0.388857500406313   0.777794500542799   0.624876066056748   1.0000000
B2   B   0.222095754584250   0.277637058146230   0.625036914755490   1.0000000
B2   B   0.722270871232590   0.777841163398797   0.624947618795919   1.0000000
B2   B   0.555541303561980   0.277637058146230   0.625036914755490   1.0000000
B2   B   0.888890452210622   0.277780904421251   0.624889507651298   1.0000000
B2   B   0.222195599121541   0.777762755134108   0.125053576164208   1.0000000
B2   B   0.055487632139159   0.277752337764366   0.125034447463720   1.0000000
B2   B   0.388807815567906   0.277615631135818   0.124552393651707   1.0000000
B2   B   0.555570292166207   0.777841163398797   0.125052381204081   1.0000000
B2   B   0.888937000136480   0.777794500542799   0.125123933943253   1.0000000
B2   B   0.722264705625206   0.277752337764366   0.125034447463720   1.0000000
B2   B   0.055519628088170   0.944366547389263   0.624948421443618   1.0000000
B2   B   0.388846919301093   0.944366547389263   0.624948421443618   1.0000000
B2   B   0.222119210775264   0.444440454160019   0.624811019051522   1.0000000
B2   B   0.555521139574283   0.444372682992731   0.625430885771883   1.0000000
B2   B   0.722227655920344   0.944455311840690   0.624893259743298   1.0000000
B2   B   0.888934896838687   0.444460466001503   0.624941331238587   1.0000000
B2   B   0.055525569162817   0.444460466001503   0.125058668761412   1.0000000
B2   B   0.222167887277903   0.944335774555807   0.125104644681487   1.0000000
B2   B   0.555542716455674   0.944429593489827   0.125043638365564   1.0000000
B2   B   0.388851543418449   0.444372682992731   0.124569114228116   1.0000000
B2   B   0.888886877034153   0.944429593489827   0.125043638365564   1.0000000
B2   B   0.722321243384755   0.444440454160019   0.125188980948477   1.0000000
B2   B   0.222168263347104   0.611153501248747   0.624903826699763   1.0000000
B2   B   0.055481440260170   0.111015517904114   0.624903434457777   1.0000000
B2   B   0.555618203550649   0.611236407101297   0.624673610387289   1.0000000
B2   B   0.388820448019769   0.110938466723256   0.624962744302758   1.0000000
B2   B   0.888985237901636   0.611153501248747   0.624903826699763   1.0000000
B2   B   0.055568079179457   0.611136158358915   0.125135253044138   1.0000000
B2   B   0.722219710062706   0.111088486792312   0.624952706123354   1.0000000
B2   B   0.222118018703480   0.110938466723256   0.125037255697242   1.0000000
B2   B   0.388845283427109   0.611188713682560   0.125219448528020   1.0000000
B2   B   0.722343430255444   0.611188713682560   0.125219448528020   1.0000000
B2   B   0.555534077643944   0.111015517904114   0.125096565542223   1.0000000
B2   B   0.388845283427109   0.611188713682560   0.624780551471980   1.0000000
B2   B   0.888868776729598   0.111088486792312   0.125047293876646   1.0000000
B2   B   0.222195599121541   0.777762755134108   0.624946423835792   1.0000000
B2   B   0.055487632139159   0.277752337764366   0.624965552536279   1.0000000
B2   B   0.388807815567906   0.277615631135818   0.625447606348293   1.0000000
B2   B   0.555570292166207   0.777841163398797   0.624947618795919   1.0000000
B2   B   0.888937000136480   0.777794500542799   0.624876066056748   1.0000000
B2   B   0.722264705625206   0.277752337764366   0.624965552536279   1.0000000
B2   B   0.055567156012566   0.777762755134108   0.125053576164208   1.0000000
B2   B   0.388857500406313   0.777794500542799   0.125123933943253   1.0000000
B2   B   0.222095754584250   0.277637058146230   0.124963085244510   1.0000000
B2   B   0.722270871232590   0.777841163398797   0.125052381204081   1.0000000
B2   B   0.555541303561980   0.277637058146230   0.124963085244510   1.0000000
B2   B   0.888890452210622   0.277780904421251   0.125110492348703   1.0000000
B2   B   0.055525569162817   0.444460466001503   0.624941331238587   1.0000000
B2   B   0.222167887277903   0.944335774555807   0.624895355318513   1.0000000
B2   B   0.555542716455674   0.944429593489827   0.624956361634436   1.0000000
B2   B   0.388851543418449   0.444372682992731   0.625430885771883   1.0000000
B2   B   0.888886877034153   0.944429593489827   0.624956361634436   1.0000000
B2   B   0.055519628088170   0.944366547389263   0.125051578556382   1.0000000
B2   B   0.722321243384755   0.444440454160019   0.624811019051522   1.0000000
B2   B   0.388846919301093   0.944366547389263   0.125051578556382   1.0000000
B2   B   0.222119210775264   0.444440454160019   0.125188980948477   1.0000000
B2   B   0.222168263347104   0.611153501248747   0.125096173300237   1.0000000
B2   B   0.555521139574283   0.444372682992731   0.124569114228116   1.0000000
B2   B   0.722227655920344   0.944455311840690   0.125106740256702   1.0000000
B2   B   0.888934896838687   0.444460466001503   0.125058668761412   1.0000000
B2   B   0.055568079179457   0.611136158358915   0.624864746955862   1.0000000
B2   B   0.222118018703480   0.110938466723256   0.624962744302758   1.0000000
B2   B   0.722343430255444   0.611188713682560   0.624780551471980   1.0000000
B2   B   0.555534077643944   0.111015517904114   0.624903434457777   1.0000000
B2   B   0.888868776729598   0.111088486792312   0.624952706123354   1.0000000


