data_1
_audit_creation_method   'vasp2cif'
_cell_length_a    14.93631414619966
_cell_length_b    14.936314146199727
_cell_length_c    13.341276283792837
_cell_angle_alpha    90.0
_cell_angle_beta    90.0
_cell_angle_gamma    119.99999999999984

_symmetry_space_group_name_H-M    'P 1'
loop_
_atom_site_label
_atom_site_type_symbol
_atom_site_fract_x
_atom_site_fract_y
_atom_site_fract_z
_atom_site_occupancy
O2   O   0.445135056627260   0.390788945688262   0.375000000000000   1.0000000
N2   N   0.552365328594819   0.440427295339763   0.375000000000000   1.0000000
N2   N   0.111962226792748   0.056200279382036   0.125002975692733   1.0000000
N2   N   0.611963213228346   0.556235386959884   0.126796542814594   1.0000000
N2   N   0.445298827655468   0.056211324934666   0.124895494558180   1.0000000
N2   N   0.945289949529026   0.556218311771366   0.125925349695187   1.0000000
N2   N   0.778654638175588   0.056179978444686   0.124916162163303   1.0000000
N2   N   0.111945400049588   0.722868331528394   0.624777403474360   1.0000000
N2   N   0.445297426855243   0.722856686250582   0.625110838876757   1.0000000
N2   N   0.278636187698258   0.222897978667652   0.624250824937493   1.0000000
N2   N   0.778633196345986   0.722886291148666   0.624462890587819   1.0000000
N2   N   0.612005444883108   0.222878067112089   0.624839539116053   1.0000000
N2   N   0.945322520796532   0.222855347508620   0.624952285601513   1.0000000
N2   N   0.278620660435363   0.722867449296829   0.124928907718464   1.0000000
N2   N   0.111970171085008   0.222858194732725   0.125042535330812   1.0000000
N2   N   0.445292248059950   0.222914315543799   0.125491463773382   1.0000000
N2   N   0.611973942539057   0.722863821540357   0.125177727831413   1.0000000
N2   N   0.945284237755631   0.722881232467878   0.125578652901722   1.0000000
N2   N   0.778672702316590   0.222859113639047   0.125326639278407   1.0000000
N2   N   0.111949175495156   0.889535571766113   0.624954036968850   1.0000000
N2   N   0.445296894293852   0.889533666448164   0.625109264158116   1.0000000
N2   N   0.278657391463794   0.389537098434986   0.624308184711851   1.0000000
N2   N   0.612013266187866   0.389604085379545   0.624160679117932   1.0000000
N2   N   0.778643460852116   0.889526492077081   0.625131619537094   1.0000000
N2   N   0.945311392892933   0.389538040287952   0.624452916219985   1.0000000
N2   N   0.111978974244027   0.389533361921860   0.125051566927092   1.0000000
N2   N   0.278618836724677   0.889538932877817   0.124955233070585   1.0000000
N2   N   0.611971778262835   0.889519485166351   0.124817966813827   1.0000000
N2   N   0.445303949626369   0.389575070080155   0.127377071592614   1.0000000
N2   N   0.945300197286553   0.889538010580057   0.124993266501113   1.0000000
N2   N   0.778665654275420   0.389556626472398   0.126061575558305   1.0000000
N2   N   0.278636289600176   0.556196633752505   0.625001282982836   1.0000000
N2   N   0.111962226792749   0.056200279382036   0.624997024307272   1.0000000
N2   N   0.611963213228346   0.556235386959884   0.623203457185409   1.0000000
N2   N   0.445298827655468   0.056211324934666   0.625104505441830   1.0000000
N2   N   0.945289949529026   0.556218311771366   0.624074650304801   1.0000000
N2   N   0.111954045647740   0.556200725615667   0.125191940794271   1.0000000
N2   N   0.778654638175588   0.056179978444686   0.625083837836697   1.0000000
N2   N   0.278616981060675   0.056214516857518   0.125019234881313   1.0000000
N2   N   0.445324944224855   0.556206411417658   0.125830546676805   1.0000000
N2   N   0.778628827112783   0.556251967858216   0.126506349891819   1.0000000
N2   N   0.611987606610786   0.056186958292830   0.124917000411504   1.0000000
N2   N   0.445324944224855   0.556206411417658   0.624169453323200   1.0000000
N2   N   0.945310595500228   0.056186764134190   0.124861192845369   1.0000000
N2   N   0.278620660435363   0.722867449296829   0.625071092281529   1.0000000
N2   N   0.111970171085008   0.222858194732725   0.624957464669189   1.0000000
N2   N   0.445292248059950   0.222914315543799   0.624508536226620   1.0000000
N2   N   0.611973942539057   0.722863821540357   0.624822272168592   1.0000000
N2   N   0.945284237755631   0.722881232467878   0.624421347098277   1.0000000
N2   N   0.778672702316590   0.222859113639047   0.624673360721583   1.0000000
N2   N   0.111945400049588   0.722868331528394   0.125222596525633   1.0000000
N2   N   0.445297426855243   0.722856686250575   0.124889161123230   1.0000000
N2   N   0.278636187698258   0.222897978667652   0.125749175062501   1.0000000
N2   N   0.778633196345986   0.722886291148666   0.125537109412194   1.0000000
N2   N   0.612005444883107   0.222878067112089   0.125160460883955   1.0000000
N2   N   0.945322520796532   0.222855347508620   0.125047714398485   1.0000000
N2   N   0.111978974244027   0.389533361921860   0.624948433072887   1.0000000
N2   N   0.278618836724677   0.889538932877817   0.625044766929412   1.0000000
N2   N   0.611971778262835   0.889519485166351   0.625182033186191   1.0000000
N2   N   0.445303949626370   0.389575070080155   0.622622928407379   1.0000000
N2   N   0.945300197286553   0.889538010580057   0.625006733498895   1.0000000
N2   N   0.111949175495155   0.889535571766113   0.125045963031148   1.0000000
N2   N   0.778665654275420   0.389556626472398   0.623938424441691   1.0000000
N2   N   0.445296894293852   0.889533666448164   0.124890735841891   1.0000000
N2   N   0.278657391463794   0.389537098434990   0.125691815288148   1.0000000
N2   N   0.278636289600176   0.556196633752505   0.124998717017144   1.0000000
N2   N   0.612013266187866   0.389604085379545   0.125839320882066   1.0000000
N2   N   0.778643460852116   0.889526492077081   0.124868380462909   1.0000000
N2   N   0.945311392892933   0.389538040287952   0.125547083780025   1.0000000
N2   N   0.111954045647741   0.556200725615667   0.624808059205719   1.0000000
N2   N   0.278616981060675   0.056214516857518   0.624980765118679   1.0000000
N2   N   0.778628827112783   0.556251967858214   0.623493650108176   1.0000000
N2   N   0.611987606610786   0.056186958292830   0.625082999588487   1.0000000
N2   N   0.945310595500228   0.056186764134188   0.625138807154625   1.0000000
N2   N   0.053352934810012   0.110252946417549   0.375000000000000   1.0000000
N2   N   0.552699524458832   0.610306559176151   0.375000000000000   1.0000000
N2   N   0.384205098299068   0.107892101127602   0.375000000000000   1.0000000
N2   N   0.886981556184841   0.610584726070710   0.375000000000000   1.0000000
N2   N   0.719639056849632   0.107989191683746   0.375000000000000   1.0000000
N2   N   0.056330876006374   0.778386403261293   0.875000000000000   1.0000000
N2   N   0.389666114038559   0.778392699138838   0.875000000000000   1.0000000
N2   N   0.223006043655292   0.278398828345541   0.875000000000000   1.0000000
N2   N   0.722994293503295   0.778385509286406   0.875000000000000   1.0000000
N2   N   0.556337187589628   0.278396151192685   0.875000000000000   1.0000000
N2   N   0.889668040579231   0.278397913329626   0.875000000000000   1.0000000
N2   N   0.218998663168965   0.775895304553207   0.375000000000000   1.0000000
N2   N   0.053334776559799   0.276670719281355   0.375000000000000   1.0000000
N2   N   0.388318230699028   0.277942132685584   0.375000000000000   1.0000000
N2   N   0.552608631447266   0.775651193707744   0.375000000000000   1.0000000
N2   N   0.885974846803313   0.776555931357570   0.375000000000000   1.0000000
N2   N   0.719014353665405   0.273031777773982   0.375000000000000   1.0000000
N2   N   0.056331189504054   0.945058323692616   0.875000000000000   1.0000000
N2   N   0.389669318256053   0.945058780768516   0.875000000000000   1.0000000
N2   N   0.223003926707347   0.445060476191514   0.875000000000000   1.0000000
N2   N   0.556330557002080   0.445061464678643   0.875000000000000   1.0000000
N2   N   0.722993690682025   0.945057221253715   0.875000000000000   1.0000000
N2   N   0.889672224792111   0.445061642581440   0.875000000000000   1.0000000
N2   N   0.053570718068704   0.443116039259585   0.375000000000000   1.0000000
N2   N   0.218949854795598   0.942810204385570   0.375000000000000   1.0000000
N2   N   0.552297765803596   0.940514349218264   0.375000000000000   1.0000000
N2   N   0.384863730307921   0.444116847732056   0.375000000000000   1.0000000
N2   N   0.886522800241640   0.943322312224649   0.375000000000000   1.0000000
N2   N   0.731949496853922   0.448155903564230   0.375000000000000   1.0000000
N2   N   0.222999033268712   0.611722475494379   0.875000000000000   1.0000000
N2   N   0.056331216394307   0.111724257946259   0.875000000000000   1.0000000
N2   N   0.556329633238866   0.611720154222533   0.875000000000000   1.0000000
N2   N   0.389674150651193   0.111731143527191   0.875000000000000   1.0000000
N2   N   0.889663352485971   0.611715933852927   0.875000000000000   1.0000000
N2   N   0.052799181006717   0.609628799748521   0.375000000000000   1.0000000
N2   N   0.722995698381060   0.111726168078575   0.875000000000000   1.0000000
N2   N   0.221386153693048   0.111925593504019   0.375000000000000   1.0000000
N2   N   0.385949339601602   0.608873303753916   0.375000000000000   1.0000000
N2   N   0.717503267174330   0.608591299995684   0.375000000000000   1.0000000
N2   N   0.551857964517686   0.103923197719988   0.375000000000000   1.0000000
N2   N   0.389668049325740   0.611722877542242   0.875000000000000   1.0000000
N2   N   0.886673930501140   0.109621160564553   0.375000000000000   1.0000000
N2   N   0.223001599759651   0.778390147653790   0.875000000000000   1.0000000
N2   N   0.056333028537600   0.278394960427579   0.875000000000000   1.0000000
N2   N   0.389675948460300   0.278406142104797   0.875000000000000   1.0000000
N2   N   0.556327749454050   0.778389429071241   0.875000000000000   1.0000000
N2   N   0.889661662274504   0.778385470127057   0.875000000000000   1.0000000
N2   N   0.723004239700076   0.278398372628579   0.875000000000000   1.0000000
N2   N   0.052879585369255   0.776778679837536   0.375000000000000   1.0000000
N2   N   0.385686379613146   0.775290364140232   0.375000000000000   1.0000000
N2   N   0.219498665923846   0.276634600341015   0.375000000000000   1.0000000
N2   N   0.719562329543185   0.776299545794987   0.375000000000000   1.0000000
N2   N   0.548994828577150   0.261554718088385   0.375000000000000   1.0000000
N2   N   0.886632953880609   0.275831838499030   0.375000000000000   1.0000000
N2   N   0.056332483987174   0.445060358190994   0.875000000000000   1.0000000
N2   N   0.223003643037964   0.945059965216523   0.875000000000000   1.0000000
N2   N   0.556327176511220   0.945058049055332   0.875000000000000   1.0000000
N2   N   0.389672875084879   0.445063352508962   0.875000000000000   1.0000000
N2   N   0.889662876700909   0.945055374241075   0.875000000000000   1.0000000
N2   N   0.053474058885183   0.944137944660022   0.375000000000000   1.0000000
N2   N   0.723002695235157   0.445058350435666   0.875000000000000   1.0000000
N2   N   0.385109288995199   0.941375641486505   0.375000000000000   1.0000000
N2   N   0.220454128374666   0.443301577039877   0.375000000000000   1.0000000
N2   N   0.219495974706540   0.609497081227276   0.375000000000000   1.0000000
N2   N   0.719642529231329   0.942354415609687   0.375000000000000   1.0000000
N2   N   0.887053836434460   0.442408213049477   0.375000000000000   1.0000000
N2   N   0.056333170703232   0.611720345043505   0.875000000000000   1.0000000
N2   N   0.223004446232795   0.111732161338267   0.875000000000000   1.0000000
N2   N   0.722993533706120   0.611716244897314   0.875000000000000   1.0000000
N2   N   0.556333202026397   0.111725330056174   0.875000000000000   1.0000000
N2   N   0.889663279026638   0.111724805090943   0.875000000000000   1.0000000
B2   B   0.109451850201466   0.055441608178176   0.375000000000000   1.0000000
B2   B   0.606195405995120   0.553708593257651   0.375000000000000   1.0000000
B2   B   0.441013043487546   0.052405951629913   0.375000000000000   1.0000000
B2   B   0.941452759727332   0.553710142015120   0.375000000000000   1.0000000
B2   B   0.775410904447014   0.053473099944205   0.375000000000000   1.0000000
B2   B   0.111877334456895   0.722828242079299   0.875000000000000   1.0000000
B2   B   0.445226963378308   0.722852491994634   0.875000000000000   1.0000000
B2   B   0.278599820852967   0.222848055605164   0.875000000000000   1.0000000
B2   B   0.778540366042785   0.722797324729015   0.875000000000000   1.0000000
B2   B   0.611891161328563   0.222866145820439   0.875000000000000   1.0000000
B2   B   0.945192858067790   0.222843501972352   0.875000000000000   1.0000000
B2   B   0.274680300545803   0.720560971391256   0.375000000000000   1.0000000
B2   B   0.107907316570536   0.220751551484281   0.375000000000000   1.0000000
B2   B   0.447660361246303   0.220424987079316   0.375000000000000   1.0000000
B2   B   0.608890667001297   0.721579153616222   0.375000000000000   1.0000000
B2   B   0.941905899312697   0.721329780671113   0.375000000000000   1.0000000
B2   B   0.775105653205944   0.219253118667879   0.375000000000000   1.0000000
B2   B   0.111893735141130   0.889497053232436   0.875000000000000   1.0000000
B2   B   0.445229038490916   0.889531150616769   0.875000000000000   1.0000000
B2   B   0.278574662384899   0.389509078273969   0.875000000000000   1.0000000
B2   B   0.611902219475747   0.389490091566967   0.875000000000000   1.0000000
B2   B   0.778542556533128   0.889496997368780   0.875000000000000   1.0000000
B2   B   0.945186767441530   0.389505186039485   0.875000000000000   1.0000000
B2   B   0.108689750061307   0.387578307756254   0.375000000000000   1.0000000
B2   B   0.274359487976554   0.886880638829975   0.375000000000000   1.0000000
B2   B   0.608515129557950   0.886491540980903   0.375000000000000   1.0000000
B2   B   0.941989990938066   0.887886104196015   0.375000000000000   1.0000000
B2   B   0.774451673845772   0.383516545442160   0.375000000000000   1.0000000
B2   B   0.278553834925439   0.556178609303382   0.875000000000000   1.0000000
B2   B   0.111898774821351   0.056167875666709   0.875000000000000   1.0000000
B2   B   0.611895952978064   0.556131992151511   0.875000000000000   1.0000000
B2   B   0.445250732816659   0.056202525605650   0.875000000000000   1.0000000
B2   B   0.945191985035967   0.556148546163197   0.875000000000000   1.0000000
B2   B   0.108307318620956   0.554187474380624   0.375000000000000   1.0000000
B2   B   0.778534275102332   0.056185537190857   0.875000000000000   1.0000000
B2   B   0.274694321772441   0.053714251515809   0.375000000000000   1.0000000
B2   B   0.443405506980706   0.555873003110031   0.375000000000000   1.0000000
B2   B   0.774956787772388   0.555061392652808   0.375000000000000   1.0000000
B2   B   0.608299067918175   0.051002123395375   0.375000000000000   1.0000000
B2   B   0.445244781029632   0.556170979781403   0.875000000000000   1.0000000
B2   B   0.942015763927937   0.054297984676801   0.375000000000000   1.0000000
B2   B   0.278553134933999   0.722848155032507   0.875000000000000   1.0000000
B2   B   0.111883806983227   0.222836299793569   0.875000000000000   1.0000000
B2   B   0.445282956845775   0.222863000643568   0.875000000000000   1.0000000
B2   B   0.611889609348809   0.722826498695620   0.875000000000000   1.0000000
B2   B   0.945201298198825   0.722802387952097   0.875000000000000   1.0000000
B2   B   0.778526943618781   0.222857773336827   0.875000000000000   1.0000000
B2   B   0.108003065692124   0.720710857602402   0.375000000000000   1.0000000
B2   B   0.441682958836246   0.720474982813741   0.375000000000000   1.0000000
B2   B   0.275914387620283   0.223146124873984   0.375000000000000   1.0000000
B2   B   0.774534105496797   0.720241224315080   0.375000000000000   1.0000000
B2   B   0.606275263220391   0.215365955668318   0.375000000000000   1.0000000
B2   B   0.941907680051922   0.220664991621128   0.375000000000000   1.0000000
B2   B   0.111867981922359   0.389505798040908   0.875000000000000   1.0000000
B2   B   0.278571933701781   0.889519720711400   0.875000000000000   1.0000000
B2   B   0.611882879387191   0.889521971137250   0.875000000000000   1.0000000
B2   B   0.445275496457955   0.389507016989351   0.875000000000000   1.0000000
B2   B   0.945211418550437   0.889484447038346   0.875000000000000   1.0000000
B2   B   0.108225587925893   0.887746611312360   0.375000000000000   1.0000000
B2   B   0.778526516363175   0.389500966833700   0.875000000000000   1.0000000
B2   B   0.441219368097574   0.886342809987670   0.375000000000000   1.0000000
B2   B   0.273439455079950   0.385900087439766   0.375000000000000   1.0000000
B2   B   0.275018277427573   0.554357018568395   0.375000000000000   1.0000000
B2   B   0.775446496473355   0.887505772843850   0.375000000000000   1.0000000
B2   B   0.942187370882389   0.386981026760245   0.375000000000000   1.0000000
B2   B   0.111866157468888   0.556167938520681   0.875000000000000   1.0000000
B2   B   0.278595848170724   0.056187156253664   0.875000000000000   1.0000000
B2   B   0.778528327592051   0.556120328271860   0.875000000000000   1.0000000
B2   B   0.611882555354950   0.056201886536158   0.875000000000000   1.0000000
B2   B   0.945205492846920   0.056166328830328   0.875000000000000   1.0000000
B2   B   0.056383909089800   0.111704008118356   0.124845098466234   1.0000000
B2   B   0.556545755711862   0.611732289494220   0.125752806541867   1.0000000
B2   B   0.389849601854932   0.111881498166946   0.125126294756846   1.0000000
B2   B   0.889632517867675   0.611704092017534   0.126087996097692   1.0000000
B2   B   0.723091030605080   0.111802187164152   0.125076840052026   1.0000000
B2   B   0.056359200535545   0.778405640410588   0.624756114604730   1.0000000
B2   B   0.389749942207632   0.778479033191176   0.625200080331690   1.0000000
B2   B   0.223077865712053   0.278377452202766   0.624796146328257   1.0000000
B2   B   0.723123287296596   0.778414094965454   0.624913743846315   1.0000000
B2   B   0.556587787014333   0.278647373575622   0.623681993544628   1.0000000
B2   B   0.889688527470378   0.278417113385100   0.624669506171102   1.0000000
B2   B   0.223048531319214   0.778457457299892   0.124983120807427   1.0000000
B2   B   0.056360365296029   0.278393103970133   0.124912687663015   1.0000000
B2   B   0.389917386780807   0.278476236313501   0.126150927525350   1.0000000
B2   B   0.556462442680437   0.778450499733115   0.124805450708446   1.0000000
B2   B   0.889720509653563   0.778391444286233   0.125316570186280   1.0000000
B2   B   0.723050227041932   0.278481558130740   0.125740700755544   1.0000000
B2   B   0.056394177338143   0.945058943232648   0.625062038395376   1.0000000
B2   B   0.389781271907006   0.945183643305589   0.625093885949412   1.0000000
B2   B   0.223054435560775   0.445088414482942   0.625035570715810   1.0000000
B2   B   0.556614257169601   0.445014896331440   0.622503395793883   1.0000000
B2   B   0.723101121387233   0.945104869411118   0.625196759417332   1.0000000
B2   B   0.889615786485327   0.445060304656826   0.624014561712470   1.0000000
B2   B   0.056328055978560   0.445080443760407   0.125184824215217   1.0000000
B2   B   0.223081652783119   0.945115099834781   0.124946023689523   1.0000000
B2   B   0.556448229744363   0.945160526619619   0.124844084725182   1.0000000
B2   B   0.389879213747276   0.445064418320810   0.125997423015948   1.0000000
B2   B   0.889747278819059   0.945066358658708   0.124832978329020   1.0000000
B2   B   0.722930746316479   0.445015529661388   0.126834395412650   1.0000000
B2   B   0.223029171787299   0.611779843358233   0.625108129153804   1.0000000
B2   B   0.056383909089801   0.111704008118356   0.625154901533769   1.0000000
B2   B   0.556545755711862   0.611732289494220   0.624247193458128   1.0000000
B2   B   0.389849601854932   0.111881498166946   0.624873705243157   1.0000000
B2   B   0.889632517867675   0.611704092017534   0.623912003902293   1.0000000
B2   B   0.056313778920609   0.611741390365115   0.125422059256143   1.0000000
B2   B   0.723091030605080   0.111802187164152   0.624923159947976   1.0000000
B2   B   0.223101284112914   0.111735165136219   0.125093502685558   1.0000000
B2   B   0.389778504969127   0.611777535868699   0.124953302064207   1.0000000
B2   B   0.723070225511115   0.611688679908012   0.126363589675022   1.0000000
B2   B   0.556490776766063   0.111898177923026   0.125068710065569   1.0000000
B2   B   0.389778504969120   0.611777535868699   0.625046697935796   1.0000000
B2   B   0.889728240069729   0.111741408324299   0.124892215054311   1.0000000
B2   B   0.223048531319214   0.778457457299892   0.625016879192572   1.0000000
B2   B   0.056360365296029   0.278393103970133   0.625087312336995   1.0000000
B2   B   0.389917386780807   0.278476236313501   0.623849072474652   1.0000000
B2   B   0.556462442680437   0.778450499733115   0.625194549291534   1.0000000
B2   B   0.889720509653564   0.778391444286233   0.624683429813745   1.0000000
B2   B   0.723050227041932   0.278481558130740   0.624259299244468   1.0000000
B2   B   0.056359200535545   0.778405640410588   0.125243885395258   1.0000000
B2   B   0.389749942207632   0.778479033191176   0.124799919668311   1.0000000
B2   B   0.223077865712053   0.278377452202766   0.125203853671753   1.0000000
B2   B   0.723123287296596   0.778414094965454   0.125086256153686   1.0000000
B2   B   0.556587787014333   0.278647373575622   0.126318006455377   1.0000000
B2   B   0.889688527470378   0.278417113385100   0.125330493828913   1.0000000
B2   B   0.056328055978561   0.445080443760407   0.624815175784777   1.0000000
B2   B   0.223081652783119   0.945115099834781   0.625053976310479   1.0000000
B2   B   0.556448229744363   0.945160526619619   0.625155915274814   1.0000000
B2   B   0.389879213747276   0.445064418320810   0.624002576984042   1.0000000
B2   B   0.889747278819059   0.945066358658708   0.625167021670990   1.0000000
B2   B   0.056394177338144   0.945058943232648   0.124937961604628   1.0000000
B2   B   0.722930746316479   0.445015529661388   0.623165604587347   1.0000000
B2   B   0.389781271907006   0.945183643305588   0.124906114050595   1.0000000
B2   B   0.223054435560777   0.445088414482942   0.124964429284182   1.0000000
B2   B   0.223029171787291   0.611779843358233   0.124891870846195   1.0000000
B2   B   0.556614257169601   0.445014896331440   0.127496604206099   1.0000000
B2   B   0.723101121387233   0.945104869411118   0.124803240582677   1.0000000
B2   B   0.889615786485325   0.445060304656826   0.125985438287539   1.0000000
B2   B   0.056313778920609   0.611741390365115   0.624577940743855   1.0000000
B2   B   0.223101284112915   0.111735165136219   0.624906497314448   1.0000000
B2   B   0.723070225511115   0.611688679908012   0.623636410324971   1.0000000
B2   B   0.556490776766063   0.111898177923026   0.624931289934440   1.0000000
B2   B   0.889728240069729   0.111741408324299   0.625107784945691   1.0000000


