data_1
_audit_creation_method   'vasp2cif'
_cell_length_a    17.52789999999977
_cell_length_b    17.52789999999977
_cell_length_c    15.0
_cell_angle_alpha    90.0
_cell_angle_beta    90.0
_cell_angle_gamma    119.99999999999916

_symmetry_space_group_name_H-M    'P 1'
loop_
_atom_site_label
_atom_site_type_symbol
_atom_site_fract_x
_atom_site_fract_y
_atom_site_fract_z
_atom_site_occupancy
B2   B   0.904794199152287   0.952219543005624   0.111017776234861   1.0000000
B2   B   0.904797724324717   0.095184473071417   0.111050634743869   1.0000000
B2   B   0.904805404224920   0.238178776759026   0.111050338032712   1.0000000
B2   B   0.904821862623516   0.381168541378144   0.111010821325047   1.0000000
B2   B   0.903988036817620   0.523778763392961   0.111016017391887   1.0000000
B2   B   0.903793160433394   0.666187426458724   0.111052590837883   1.0000000
B2   B   0.903945212649256   0.808752892499129   0.111024094532290   1.0000000
B2   B   0.047608034131663   0.952356168613426   0.111003578915824   1.0000000
B2   B   0.047731341913812   0.095156806019084   0.111012404601595   1.0000000
B2   B   0.047742222091210   0.238157421689633   0.111006356747954   1.0000000
B2   B   0.047744319429550   0.381163629621468   0.111015516498190   1.0000000
B2   B   0.047623077846758   0.523845770652590   0.111012792413755   1.0000000
B2   B   0.047461017485106   0.666609290710021   0.111022930000642   1.0000000
B2   B   0.047463623274917   0.809427482137652   0.110995683157892   1.0000000
B2   B   0.190531951857149   0.952490387589465   0.110989494490780   1.0000000
B2   B   0.191197588422774   0.096016582725852   0.111015938863244   1.0000000
B2   B   0.190829570423270   0.238551460509893   0.111007617610154   1.0000000
B2   B   0.190830620780680   0.380878947085834   0.111002763247184   1.0000000
B2   B   0.191189816838611   0.523769198965350   0.111032395761838   1.0000000
B2   B   0.190532850290221   0.666610993728264   0.111051068295126   1.0000000
B2   B   0.190454136512771   0.809516815111178   0.110998756888513   1.0000000
B2   B   0.333375742461425   0.952506599176795   0.111019337857702   1.0000000
B2   B   0.333828100633228   0.096236653905358   0.111045367341166   1.0000000
B2   B   0.335461474375444   0.240438328069654   0.111037881615768   1.0000000
B2   B   0.333196191219257   0.380903937038234   0.111036431930542   1.0000000
B2   B   0.335397391695469   0.523603085899470   0.111069868577763   1.0000000
B2   B   0.333825189335797   0.666173753238023   0.111091834726898   1.0000000
B2   B   0.333377894016834   0.809437263881781   0.111054588515769   1.0000000
B2   B   0.476166588616618   0.952363607987883   0.111018690542425   1.0000000
B2   B   0.476244736008046   0.096035116180614   0.111014017177492   1.0000000
B2   B   0.476427120440023   0.240449556479305   0.111036188482396   1.0000000
B2   B   0.480864048985699   0.390285777463311   0.110998404827755   1.0000000
B2   B   0.480716755589430   0.519222958100248   0.111144392279577   1.0000000
B2   B   0.476412321703799   0.664549171955666   0.111065125085726   1.0000000
B2   B   0.476245139410462   0.808760528020530   0.111038579601620   1.0000000
B2   B   0.618860308230977   0.952217621737217   0.111023147655872   1.0000000
B2   B   0.618850794892641   0.095181663614215   0.111012736198828   1.0000000
B2   B   0.619139039874559   0.238555739173686   0.111010788351353   1.0000000
B2   B   0.619139519812779   0.380919749355314   0.111025923094542   1.0000000
B2   B   0.610119199827798   0.519305531813374   0.111025562007075   1.0000000
B2   B   0.619081580583776   0.666714648652296   0.111020715004811   1.0000000
B2   B   0.619120343141529   0.809127714872118   0.111001659571856   1.0000000
B2   B   0.761833367394236   0.952209431257166   0.111008873233857   1.0000000
B2   B   0.761830326895783   0.095191029027198   0.111054562919139   1.0000000
B2   B   0.761848620358753   0.238179117439986   0.111059353946662   1.0000000
B2   B   0.761486246424097   0.380908238892499   0.111018631822694   1.0000000
B2   B   0.759670743156248   0.523604567923719   0.111042743154171   1.0000000
B2   B   0.759613797182298   0.664579740062341   0.111038357384485   1.0000000
B2   B   0.761457336529766   0.809129765260413   0.111007095770186   1.0000000
N2   N   0.951999497432411   0.904220601617413   0.111000693312357   1.0000000
N2   N   0.952497137730812   0.047504524725921   0.111016250558565   1.0000000
N2   N   0.952554618061031   0.190563213838390   0.111023358904720   1.0000000
N2   N   0.952499349616354   0.333572713755105   0.111009477230226   1.0000000
N2   N   0.952015684429538   0.476359151044890   0.110985817980677   1.0000000
N2   N   0.951579633663088   0.618794646560333   0.111017843568671   1.0000000
N2   N   0.951577745754383   0.761352719570780   0.111013170802736   1.0000000
N2   N   0.095229734924757   0.904771184712987   0.110969701616472   1.0000000
N2   N   0.095765553174018   0.047990357618570   0.110993912865958   1.0000000
N2   N   0.095763421683935   0.190727216534114   0.110990893061930   1.0000000
N2   N   0.095754691755122   0.333605680153782   0.110985175357891   1.0000000
N2   N   0.095761882521411   0.476357192014022   0.110996354632823   1.0000000
N2   N   0.095223496655411   0.619037316783190   0.111014401374385   1.0000000
N2   N   0.095039031398437   0.761808222606178   0.110980690195531   1.0000000
N2   N   0.238178686318296   0.904944479647369   0.110975793666529   1.0000000
N2   N   0.238642461834794   0.048434528435929   0.111002564342825   1.0000000
N2   N   0.239980006973642   0.192334587849332   0.111009442535915   1.0000000
N2   N   0.238612775136305   0.333603998827292   0.110988941427091   1.0000000
N2   N   0.239940282762427   0.476221456114502   0.111016339254269   1.0000000
N2   N   0.238631665241624   0.618785257040410   0.111040771104007   1.0000000
N2   N   0.238178716198026   0.761809815890836   0.111020949541520   1.0000000
N2   N   0.380958536309890   0.904771669215660   0.111017654290625   1.0000000
N2   N   0.381204200896081   0.048437196278638   0.111013559649890   1.0000000
N2   N   0.381812195200690   0.192193050293301   0.111030573537903   1.0000000
N2   N   0.384630917712282   0.337814623938446   0.111004826405154   1.0000000
N2   N   0.384549272600744   0.475387845865098   0.111057120446217   1.0000000
N2   N   0.381789982427571   0.618191455020487   0.111071984606831   1.0000000
N2   N   0.381197038516392   0.761343110758246   0.111045641562529   1.0000000
N2   N   0.523644373500924   0.904213754660414   0.111004700181505   1.0000000
N2   N   0.523642936734591   0.047996219107674   0.110989508549151   1.0000000
N2   N   0.523776559005325   0.192336991679149   0.110997883017875   1.0000000
N2   N   0.524597427409003   0.337830313229591   0.111018524107571   1.0000000
N2   N   0.524552334114910   0.615317315741697   0.111041329570356   1.0000000
N2   N   0.523764478981141   0.760004698111404   0.111017261264257   1.0000000
N2   N   0.666388523275372   0.904213302885715   0.110989523019607   1.0000000
N2   N   0.666438517533542   0.047504843206231   0.111016469935100   1.0000000
N2   N   0.666390348897411   0.190734770886828   0.111014206592681   1.0000000
N2   N   0.666415069752368   0.333613596669972   0.110997082030457   1.0000000
N2   N   0.662301588798073   0.475400526757500   0.111033104055963   1.0000000
N2   N   0.662241809465501   0.615366525893270   0.110999568512710   1.0000000
N2   N   0.666377894338739   0.761316362706782   0.110980988402363   1.0000000
N2   N   0.809266727746618   0.904217889752129   0.110994562067837   1.0000000
N2   N   0.809438607480155   0.047434226330703   0.111026719780196   1.0000000
N2   N   0.809446843626561   0.190568599103771   0.111047105092158   1.0000000
N2   N   0.809279595247476   0.333615266033086   0.111018191631950   1.0000000
N2   N   0.807725526814171   0.476230282803234   0.111005045058760   1.0000000
N2   N   0.807849017886299   0.618202088230625   0.111036116819677   1.0000000
N2   N   0.807691279255339   0.760025304846799   0.111011930881190   1.0000000


