data_1
_audit_creation_method   'vasp2cif'
_cell_length_a    17.52789999999977
_cell_length_b    17.52789999999977
_cell_length_c    15.0
_cell_angle_alpha    90.0
_cell_angle_beta    90.0
_cell_angle_gamma    119.99999999999916

_symmetry_space_group_name_H-M    'P 1'
loop_
_atom_site_label
_atom_site_type_symbol
_atom_site_fract_x
_atom_site_fract_y
_atom_site_fract_z
_atom_site_occupancy
B2   B   0.905407295498912   0.954042531835318   0.110964561370022   1.0000000
B2   B   0.906720484417654   0.098004984815824   0.110997274916119   1.0000000
B2   B   0.906341532692300   0.240634240390555   0.111099244110295   1.0000000
B2   B   0.904473953538052   0.382461557052975   0.111072134389437   1.0000000
B2   B   0.900342270771089   0.523554993140651   0.111014571971552   1.0000000
B2   B   0.899964786289708   0.665329166122735   0.111028701737349   1.0000000
B2   B   0.903421251024240   0.809837153235520   0.111030890755689   1.0000000
B2   B   0.046770209584045   0.951437520194329   0.110960960272350   1.0000000
B2   B   0.048405533683887   0.095705996247608   0.110970115776700   1.0000000
B2   B   0.049861463713877   0.239818177579160   0.111051656410880   1.0000000
B2   B   0.049704326766777   0.382409965991863   0.111049717360486   1.0000000
B2   B   0.047441366812614   0.523845277430772   0.110986864738238   1.0000000
B2   B   0.045427286409944   0.665141849589545   0.110976958651087   1.0000000
B2   B   0.045175616038924   0.807418604705403   0.110983827540234   1.0000000
B2   B   0.188397698685723   0.949221411435892   0.111051300836812   1.0000000
B2   B   0.189639051072578   0.092988188326301   0.111033489358933   1.0000000
B2   B   0.191677529325792   0.237345451062048   0.110987817767897   1.0000000
B2   B   0.194386834870279   0.381699090215471   0.111007237639609   1.0000000
B2   B   0.194013927465457   0.524108017586286   0.110979737891416   1.0000000
B2   B   0.191340576605113   0.665543516383941   0.110975767411904   1.0000000
B2   B   0.189027881342699   0.807168003509558   0.110978415008006   1.0000000
B2   B   0.331976917395813   0.949600873197878   0.111031498626942   1.0000000
B2   B   0.330670243532139   0.090214488888372   0.111107551111760   1.0000000
B2   B   0.332499055688034   0.233023288829327   0.111189240258767   1.0000000
B2   B   0.336467663467434   0.377902261726318   0.111066764865028   1.0000000
B2   B   0.340787503109769   0.524613568450446   0.111027127076333   1.0000000
B2   B   0.337726719279377   0.666706849307165   0.110977732007722   1.0000000
B2   B   0.333331930120541   0.808264757348102   0.111006792316804   1.0000000
B2   B   0.476116897787841   0.952553348342210   0.110940969322604   1.0000000
B2   B   0.474931612583113   0.093141448897696   0.111036501941771   1.0000000
B2   B   0.472119529003300   0.231697582447995   0.111185836576685   1.0000000
B2   B   0.485645947968305   0.673458624730863   0.110885795706597   1.0000000
B2   B   0.477301700307814   0.811887796873595   0.111024266251175   1.0000000
B2   B   0.620381473655788   0.956144526784538   0.110905368998028   1.0000000
B2   B   0.619289538049253   0.096900238965273   0.110892420152591   1.0000000
B2   B   0.617857089419868   0.238072825161729   0.111064239168452   1.0000000
B2   B   0.614318713446882   0.379331611408308   0.111136926925982   1.0000000
B2   B   0.611780250213913   0.672377788381720   0.110830606284273   1.0000000
B2   B   0.622043061540096   0.816735846934951   0.110962537731578   1.0000000
B2   B   0.764211036610657   0.956641084105469   0.110931705119107   1.0000000
B2   B   0.763438985046807   0.098492329994982   0.110917680597358   1.0000000
B2   B   0.762186508794444   0.240378549292916   0.111025505107689   1.0000000
B2   B   0.759093544175045   0.382023122982691   0.111062894836524   1.0000000
B2   B   0.751334954448614   0.523613842323535   0.111063850273529   1.0000000
B2   B   0.757673020989639   0.668215255802850   0.111009517446478   1.0000000
B2   B   0.762027465070725   0.812614138318352   0.110991475888528   1.0000000
C2   C   0.475057449887888   0.373001071422963   0.111361906144111   1.0000000
C2   C   0.479171531605309   0.510124630945186   0.111556163230224   1.0000000
C2   C   0.528977948055731   0.466887346231317   0.111546904816818   1.0000000
N2   N   0.951683744266114   0.905081873752954   0.110953696650125   1.0000000
N2   N   0.953473196313266   0.049326083640717   0.110948402819877   1.0000000
N2   N   0.954662005027127   0.193201664885776   0.111055907640875   1.0000000
N2   N   0.954044018390115   0.335736628705636   0.111083609154495   1.0000000
N2   N   0.951160245929383   0.477340298941691   0.111008217390950   1.0000000
N2   N   0.949147588685572   0.618559797397523   0.110990710686728   1.0000000
N2   N   0.949499963146271   0.760785356575825   0.111001664113929   1.0000000
N2   N   0.093404656592468   0.902750987031277   0.110977253341618   1.0000000
N2   N   0.095016673317371   0.046982863695389   0.110949563413362   1.0000000
N2   N   0.097056019961456   0.191389285405627   0.110976676116269   1.0000000
N2   N   0.099004897410947   0.335406340059518   0.111027088565991   1.0000000
N2   N   0.098063947361332   0.477492203795051   0.110971432291359   1.0000000
N2   N   0.095442300440605   0.618690109003765   0.110951867845931   1.0000000
N2   N   0.093546582023810   0.760186308788739   0.110948859293212   1.0000000
N2   N   0.236753431261601   0.902263206428588   0.111011416560041   1.0000000
N2   N   0.236235601684965   0.044531144727692   0.111059620659661   1.0000000
N2   N   0.238561786489916   0.189046496580720   0.111030632592662   1.0000000
N2   N   0.242126186798248   0.333300861659024   0.110954161751174   1.0000000
N2   N   0.245209658652707   0.477572593907110   0.110988633391100   1.0000000
N2   N   0.242094046448965   0.618992300864323   0.110961678684420   1.0000000
N2   N   0.238190057458908   0.760410670491738   0.110971079928822   1.0000000
N2   N   0.380765320115629   0.903237594507992   0.110980966277077   1.0000000
N2   N   0.379600126086587   0.044683215348493   0.111041132158652   1.0000000
N2   N   0.378328045464176   0.185383834680791   0.111175531114877   1.0000000
N2   N   0.384625017608420   0.330261474161986   0.111285876436261   1.0000000
N2   N   0.389886290744974   0.473970750602405   0.111040725698065   1.0000000
N2   N   0.390802227533574   0.619972198238604   0.110926051456736   1.0000000
N2   N   0.382712006731634   0.761424411540233   0.110996539493844   1.0000000
N2   N   0.524853161900330   0.906323038984511   0.110932705800178   1.0000000
N2   N   0.523699561220815   0.047433191158445   0.110902824809407   1.0000000
N2   N   0.522138426835517   0.188241996328325   0.111089941806687   1.0000000
N2   N   0.517353329032121   0.326884716094071   0.111226040871799   1.0000000
N2   N   0.526897541482739   0.765792306951471   0.111013645528192   1.0000000
N2   N   0.668908476888048   0.909923549679570   0.110916977381027   1.0000000
N2   N   0.667834190423718   0.050556920014425   0.110843233003049   1.0000000
N2   N   0.666493823297051   0.191839502837696   0.110952438540173   1.0000000
N2   N   0.663390976041713   0.332851532210958   0.111099902079720   1.0000000
N2   N   0.653602147257324   0.471704675978687   0.110932930963219   1.0000000
N2   N   0.663550541737242   0.633437758475521   0.110868357472965   1.0000000
N2   N   0.666102587019413   0.767198696206795   0.110904845311097   1.0000000
N2   N   0.810155499017451   0.907576604200137   0.110949838118871   1.0000000
N2   N   0.811523638512855   0.051227379260735   0.110914978721509   1.0000000
N2   N   0.810822134211088   0.193410782180213   0.111004346204172   1.0000000
N2   N   0.808745325310407   0.335372296197458   0.111047380192672   1.0000000
N2   N   0.803373995892448   0.476853253357155   0.111027538119942   1.0000000
N2   N   0.803169805516112   0.619003004942481   0.111036631933059   1.0000000
N2   N   0.807715983350655   0.763798717338657   0.111034258317728   1.0000000


