data_1
_audit_creation_method   'vasp2cif'
_cell_length_a    14.93631414619966
_cell_length_b    14.936314146199727
_cell_length_c    13.341276283792837
_cell_angle_alpha    90.0
_cell_angle_beta    90.0
_cell_angle_gamma    119.99999999999984

_symmetry_space_group_name_H-M    'P 1'
loop_
_atom_site_label
_atom_site_type_symbol
_atom_site_fract_x
_atom_site_fract_y
_atom_site_fract_z
_atom_site_occupancy
S2   S   0.530861940602558   0.432097636967946   0.375000000000000   1.0000000
N2   N   0.111324448279548   0.055669397026477   0.125438740594460   1.0000000
N2   N   0.611360384705605   0.555723089646420   0.125820525403421   1.0000000
N2   N   0.444763199488514   0.055698725545144   0.125145327883234   1.0000000
N2   N   0.944701850342215   0.555680116954739   0.124936855160897   1.0000000
N2   N   0.778053742891730   0.055693538112744   0.124950456716155   1.0000000
N2   N   0.111397073279442   0.722365203306904   0.625058562261341   1.0000000
N2   N   0.444763199488514   0.722397807276656   0.624854672117009   1.0000000
N2   N   0.277931409746416   0.222299265388060   0.623201789210549   1.0000000
N2   N   0.778027229081139   0.722365673789481   0.625041459995365   1.0000000
N2   N   0.611403049528913   0.222322573966894   0.624886478928478   1.0000000
N2   N   0.944665050750317   0.222327722098628   0.624926085154213   1.0000000
N2   N   0.278086880139542   0.722372556648673   0.124946760533496   1.0000000
N2   N   0.111277531073764   0.222305432203605   0.125735767323036   1.0000000
N2   N   0.444737202618126   0.222335269061737   0.126375054946589   1.0000000
N2   N   0.611403049528913   0.722413808895422   0.125113521071390   1.0000000
N2   N   0.944701850342215   0.722355066720383   0.124936855160897   1.0000000
N2   N   0.778052519649507   0.222336739601545   0.124900115469613   1.0000000
N2   N   0.111381638762853   0.889034036162484   0.624959268879326   1.0000000
N2   N   0.444772305712990   0.889052819523138   0.625163918952777   1.0000000
N2   N   0.277931409746416   0.388965477691733   0.623201789210549   1.0000000
N2   N   0.611360384705605   0.388970628392691   0.624179474597018   1.0000000
N2   N   0.778052519649507   0.889049113381288   0.625099884530883   1.0000000
N2   N   0.944690904713500   0.389002586497323   0.625041497613453   1.0000000
N2   N   0.111324448279549   0.388988384586332   0.125438740594460   1.0000000
N2   N   0.278086880139542   0.889047656823854   0.124946760533496   1.0000000
N2   N   0.611426411154113   0.889067341624723   0.124881584796044   1.0000000
N2   N   0.444564190984188   0.388948762158879   0.126419678765978   1.0000000
N2   N   0.944690904713500   0.889021651549500   0.124958502386728   1.0000000
N2   N   0.778027229081139   0.388994888625065   0.124958540004448   1.0000000
N2   N   0.278055314816859   0.555687711858552   0.624334724802570   1.0000000
N2   N   0.111324448279549   0.055669397026477   0.624561259405082   1.0000000
N2   N   0.611360384705605   0.555723089646420   0.624179474596809   1.0000000
N2   N   0.444763199488514   0.055698725545144   0.624854672117009   1.0000000
N2   N   0.944701850342215   0.555680116954739   0.625063144839314   1.0000000
N2   N   0.111381638762853   0.555680935934550   0.125040731121101   1.0000000
N2   N   0.778053742891730   0.055693538112744   0.625049543283465   1.0000000
N2   N   0.278055314816859   0.055700936292056   0.125665275197153   1.0000000
N2   N   0.444737202618126   0.555735266889942   0.126375054946587   1.0000000
N2   N   0.778008898888454   0.555671116110928   0.125173487563818   1.0000000
N2   N   0.611426411154113   0.055692402863223   0.124881584796044   1.0000000
N2   N   0.444737202618126   0.555735266889942   0.623624945054133   1.0000000
N2   N   0.944665050750317   0.055670661985221   0.125073914845626   1.0000000
N2   N   0.278086880139542   0.722372556648673   0.625053239466354   1.0000000
N2   N   0.111277531073764   0.222305432203605   0.624264232677170   1.0000000
N2   N   0.444737202618126   0.222335269061737   0.623624945054133   1.0000000
N2   N   0.611403049528913   0.722413808895422   0.624886478928478   1.0000000
N2   N   0.944701850342215   0.722355066720383   0.625063144839314   1.0000000
N2   N   0.778052519649507   0.222336739601545   0.625099884530883   1.0000000
N2   N   0.111397073279442   0.722365203306904   0.124941437738324   1.0000000
N2   N   0.444763199488514   0.722397807276656   0.125145327883234   1.0000000
N2   N   0.277931409746416   0.222299265388060   0.126798210789577   1.0000000
N2   N   0.778027229081139   0.722365673789481   0.124958540004448   1.0000000
N2   N   0.611403049528913   0.222322573966894   0.125113521071390   1.0000000
N2   N   0.944665050750317   0.222327722098628   0.125073914845626   1.0000000
N2   N   0.111324448279549   0.388988384586332   0.624561259405082   1.0000000
N2   N   0.278086880139542   0.889047656823854   0.625053239466354   1.0000000
N2   N   0.611426411154113   0.889067341624723   0.625118415204282   1.0000000
N2   N   0.444564190984188   0.388948762158879   0.623580321234373   1.0000000
N2   N   0.944690904713500   0.889021651549500   0.625041497613453   1.0000000
N2   N   0.111381638762853   0.889034036162484   0.125040731121101   1.0000000
N2   N   0.778027229081139   0.388994888625065   0.625041459995365   1.0000000
N2   N   0.444772305712990   0.889052819523138   0.124836081047924   1.0000000
N2   N   0.277931409746416   0.388965477691733   0.126798210789577   1.0000000
N2   N   0.278055314816859   0.555687711858552   0.125665275197153   1.0000000
N2   N   0.611360384705605   0.388970628392691   0.125820525403421   1.0000000
N2   N   0.778052519649507   0.889049113381288   0.124900115469613   1.0000000
N2   N   0.944690904713500   0.389002586497323   0.124958502386728   1.0000000
N2   N   0.111381638762853   0.555680935934550   0.624959268879326   1.0000000
N2   N   0.278055314816859   0.055700936292056   0.624334724802570   1.0000000
N2   N   0.778008898888454   0.555671116110928   0.624826512435965   1.0000000
N2   N   0.611426411154113   0.055692402863223   0.625118415204282   1.0000000
N2   N   0.944665050750317   0.055670661985221   0.624926085154213   1.0000000
N2   N   0.054241911395509   0.110334474926343   0.375000000000000   1.0000000
N2   N   0.554890076609668   0.616660384821690   0.375000000000000   1.0000000
N2   N   0.386076211572668   0.104587975459172   0.375000000000000   1.0000000
N2   N   0.886973149768633   0.610153241551140   0.375000000000000   1.0000000
N2   N   0.721389786365981   0.110046904421164   0.375000000000000   1.0000000
N2   N   0.055404402055103   0.777698695549448   0.875000000000000   1.0000000
N2   N   0.388726996512089   0.777698133378608   0.875000000000000   1.0000000
N2   N   0.222073167399377   0.277703250366305   0.875000000000000   1.0000000
N2   N   0.722069632776215   0.777692729249403   0.875000000000000   1.0000000
N2   N   0.555396180618424   0.277705273220471   0.875000000000000   1.0000000
N2   N   0.888744591417413   0.277714049997871   0.875000000000000   1.0000000
N2   N   0.219281682593686   0.776307507963882   0.375000000000000   1.0000000
N2   N   0.054241911395509   0.277240769802717   0.375000000000000   1.0000000
N2   N   0.383154397666601   0.265466517436956   0.375000000000000   1.0000000
N2   N   0.554069926632722   0.779827031515146   0.375000000000000   1.0000000
N2   N   0.888197342195665   0.778051409756306   0.375000000000000   1.0000000
N2   N   0.721863599759402   0.275866867547215   0.375000000000000   1.0000000
N2   N   0.055406408097932   0.944360895248003   0.875000000000000   1.0000000
N2   N   0.388726996512089   0.944362196467277   0.875000000000000   1.0000000
N2   N   0.222069320471799   0.444374915559227   0.875000000000000   1.0000000
N2   N   0.555401650609591   0.444367491971460   0.875000000000000   1.0000000
N2   N   0.722068098273026   0.944363609673394   0.875000000000000   1.0000000
N2   N   0.888744377168559   0.444378925713457   0.875000000000000   1.0000000
N2   N   0.053202306305391   0.443971533072256   0.375000000000000   1.0000000
N2   N   0.219156322595425   0.941447860314811   0.375000000000000   1.0000000
N2   N   0.553953916531269   0.943643624932589   0.375000000000000   1.0000000
N2   N   0.383154397666599   0.451021213563080   0.375000000000000   1.0000000
N2   N   0.888060793103922   0.944502263727887   0.375000000000000   1.0000000
N2   N   0.723610463893323   0.443007452519736   0.375000000000000   1.0000000
N2   N   0.222063078712348   0.611037644964447   0.875000000000000   1.0000000
N2   N   0.055410387073271   0.111032319182610   0.875000000000000   1.0000000
N2   N   0.555396180618424   0.611024240731477   0.875000000000000   1.0000000
N2   N   0.388727901108807   0.111029697294007   0.875000000000000   1.0000000
N2   N   0.888744938688593   0.611039136010952   0.875000000000000   1.0000000
N2   N   0.053018547353772   0.610180352367601   0.375000000000000   1.0000000
N2   N   0.722068098273026   0.111037821932876   0.875000000000000   1.0000000
N2   N   0.218034258698640   0.106612288579581   0.375000000000000   1.0000000
N2   N   0.386076211572668   0.614821569446741   0.375000000000000   1.0000000
N2   N   0.723610463893323   0.613936344706386   0.375000000000000   1.0000000
N2   N   0.554069926632722   0.107576228451267   0.375000000000000   1.0000000
N2   N   0.388727901108807   0.611031537148209   0.875000000000000   1.0000000
N2   N   0.888055148875770   0.110694241104741   0.375000000000000   1.0000000
N2   N   0.222062792646833   0.777698062990171   0.875000000000000   1.0000000
N2   N   0.055410387073271   0.277711401224055   0.875000000000000   1.0000000
N2   N   0.388732426274050   0.277697363885791   0.875000000000000   1.0000000
N2   N   0.555393636256336   0.777692964132797   0.875000000000000   1.0000000
N2   N   0.888744377168559   0.777698784787896   0.875000000000000   1.0000000
N2   N   0.722069632776215   0.277710236859350   0.875000000000000   1.0000000
N2   N   0.053018547353772   0.776171528320457   0.375000000000000   1.0000000
N2   N   0.386274159682698   0.778034070322830   0.375000000000000   1.0000000
N2   N   0.220971797256200   0.277152565294888   0.375000000000000   1.0000000
N2   N   0.721863599759402   0.779330065545036   0.375000000000000   1.0000000
N2   N   0.554890076609668   0.271563025121314   0.375000000000000   1.0000000
N2   N   0.888060793103922   0.276891862709298   0.375000000000000   1.0000000
N2   N   0.055406408097932   0.444378846183278   0.875000000000000   1.0000000
N2   N   0.222063078712348   0.944358767081118   0.875000000000000   1.0000000
N2   N   0.555393507528808   0.944363420430779   0.875000000000000   1.0000000
N2   N   0.388732426274050   0.444368395721500   0.875000000000000   1.0000000
N2   N   0.888744591417413   0.944363874752305   0.875000000000000   1.0000000
N2   N   0.053202306305392   0.942564106566954   0.375000000000000   1.0000000
N2   N   0.722072621894550   0.444375337609510   0.875000000000000   1.0000000
N2   N   0.386274159682698   0.941573422693891   0.375000000000000   1.0000000
N2   N   0.218034258698640   0.444755303452394   0.375000000000000   1.0000000
N2   N   0.219156322595425   0.611041795613391   0.375000000000000   1.0000000
N2   N   0.721389786365981   0.944676215278139   0.375000000000000   1.0000000
N2   N   0.888197342195665   0.443479265772881   0.375000000000000   1.0000000
N2   N   0.055404402055103   0.611039039838609   0.875000000000000   1.0000000
N2   N   0.222069320471799   0.111027738246067   0.875000000000000   1.0000000
N2   N   0.722072621894550   0.611030617618826   0.875000000000000   1.0000000
N2   N   0.555393636256336   0.111034005456590   0.875000000000000   1.0000000
N2   N   0.888744514076708   0.111038923704896   0.875000000000000   1.0000000
B2   B   0.109252415967509   0.053874488319167   0.375000000000000   1.0000000
B2   B   0.612879735563238   0.563987103210661   0.375000000000000   1.0000000
B2   B   0.442244379995557   0.052172730954529   0.375000000000000   1.0000000
B2   B   0.942301398856780   0.554465122914382   0.375000000000000   1.0000000
B2   B   0.777262294432079   0.055297813882479   0.375000000000000   1.0000000
B2   B   0.110965334772396   0.722149334052980   0.875000000000000   1.0000000
B2   B   0.444254630204584   0.722053732627855   0.875000000000000   1.0000000
B2   B   0.277710029907672   0.222225556004113   0.875000000000000   1.0000000
B2   B   0.777570753272685   0.722072649519607   0.875000000000000   1.0000000
B2   B   0.610887400257861   0.222195913086397   0.875000000000000   1.0000000
B2   B   0.944364925417014   0.222187007387259   0.875000000000000   1.0000000
B2   B   0.275216364885535   0.721478598700955   0.375000000000000   1.0000000
B2   B   0.112093851480448   0.222713592406877   0.375000000000000   1.0000000
B2   B   0.439312720622264   0.217083786162130   0.375000000000000   1.0000000
B2   B   0.609845495164751   0.724759627369499   0.375000000000000   1.0000000
B2   B   0.942301398856780   0.721169609275737   0.375000000000000   1.0000000
B2   B   0.777183139044478   0.221047481088927   0.375000000000000   1.0000000
B2   B   0.110989536342690   0.888848476062572   0.875000000000000   1.0000000
B2   B   0.444259161936610   0.888796247634986   0.875000000000000   1.0000000
B2   B   0.277710029907672   0.388817807237149   0.875000000000000   1.0000000
B2   B   0.610858492504705   0.388821006215671   0.875000000000000   1.0000000
B2   B   0.777613071661527   0.888766551494914   0.875000000000000   1.0000000
B2   B   0.944318961299480   0.388837224137890   0.875000000000000   1.0000000
B2   B   0.109252415967509   0.388711260981745   0.375000000000000   1.0000000
B2   B   0.275216364885535   0.887071099518321   0.375000000000000   1.0000000
B2   B   0.610001851422301   0.889328115741939   0.375000000000000   1.0000000
B2   B   0.943215370434931   0.888584037169879   0.375000000000000   1.0000000
B2   B   0.777665876425793   0.387175201613626   0.375000000000000   1.0000000
B2   B   0.277655349187155   0.555429803053031   0.875000000000000   1.0000000
B2   B   0.111049424825007   0.055548103253704   0.875000000000000   1.0000000
B2   B   0.610858492504705   0.555370819622213   0.875000000000000   1.0000000
B2   B   0.444254630204584   0.055534230909600   0.875000000000000   1.0000000
B2   B   0.944277834224934   0.555478793460329   0.875000000000000   1.0000000
B2   B   0.108729950078977   0.554838687217348   0.375000000000000   1.0000000
B2   B   0.777634683625950   0.055484008479544   0.875000000000000   1.0000000
B2   B   0.275288926136968   0.053088894559455   0.375000000000000   1.0000000
B2   B   0.439312720622264   0.555562267793034   0.375000000000000   1.0000000
B2   B   0.775539979109917   0.554436656221848   0.375000000000000   1.0000000
B2   B   0.610001851422301   0.054007069013162   0.375000000000000   1.0000000
B2   B   0.444250133778497   0.555363550778729   0.875000000000000   1.0000000
B2   B   0.944204951698931   0.055671740981946   0.375000000000000   1.0000000
B2   B   0.277624382938079   0.722117115029653   0.875000000000000   1.0000000
B2   B   0.111084992739696   0.222209163036575   0.875000000000000   1.0000000
B2   B   0.444250133778497   0.222219916332205   0.875000000000000   1.0000000
B2   B   0.610887400257861   0.722024820504643   0.875000000000000   1.0000000
B2   B   0.944277834224934   0.722132374098109   0.875000000000000   1.0000000
B2   B   0.777613071661527   0.222179853500443   0.875000000000000   1.0000000
B2   B   0.108565569815305   0.720949451574002   0.375000000000000   1.0000000
B2   B   0.442244379995557   0.723404982373802   0.375000000000000   1.0000000
B2   B   0.278556435867198   0.220575636962525   0.375000000000000   1.0000000
B2   B   0.777665876425793   0.723824008145040   0.375000000000000   1.0000000
B2   B   0.609845495164751   0.218419201128038   0.375000000000000   1.0000000
B2   B   0.944204951698931   0.221866544050451   0.375000000000000   1.0000000
B2   B   0.111049424825007   0.388834654904560   0.875000000000000   1.0000000
B2   B   0.277624382938079   0.888840601241682   0.875000000000000   1.0000000
B2   B   0.610917813624628   0.888755208281712   0.875000000000000   1.0000000
B2   B   0.444262237690442   0.388797785511469   0.875000000000000   1.0000000
B2   B   0.944318961299480   0.888815070494243   0.875000000000000   1.0000000
B2   B   0.108729950078977   0.887224596195191   0.375000000000000   1.0000000
B2   B   0.777570753272685   0.388831437085696   0.875000000000000   1.0000000
B2   B   0.442498033720789   0.887915683527008   0.375000000000000   1.0000000
B2   B   0.278556435867198   0.391314132238228   0.375000000000000   1.0000000
B2   B   0.275288926136968   0.555533364911163   0.375000000000000   1.0000000
B2   B   0.612879735563238   0.382225965686180   0.375000000000000   1.0000000
B2   B   0.777183139044478   0.889468991287970   0.375000000000000   1.0000000
B2   B   0.943215370434931   0.387964666597704   0.375000000000000   1.0000000
B2   B   0.110989536342690   0.555474393613570   0.875000000000000   1.0000000
B2   B   0.277655349187155   0.055558879467602   0.875000000000000   1.0000000
B2   B   0.777550521290084   0.555441927311858   0.875000000000000   1.0000000
B2   B   0.610917813624628   0.055495938676750   0.875000000000000   1.0000000
B2   B   0.944364925417014   0.055511251363924   0.875000000000000   1.0000000
B2   B   0.055966471995773   0.111395311386743   0.125984704976031   1.0000000
B2   B   0.555597200096859   0.610967378586753   0.126747670100199   1.0000000
B2   B   0.389269859209039   0.111594006713046   0.126621664302718   1.0000000
B2   B   0.888956474637556   0.611144903985076   0.125326244026712   1.0000000
B2   B   0.722486091443080   0.111254887303944   0.125276850018951   1.0000000
B2   B   0.055843126217296   0.777980129514810   0.624721968855841   1.0000000
B2   B   0.389266166477473   0.777865961044742   0.624634706952627   1.0000000
B2   B   0.222729076614498   0.278031204974096   0.622206163947794   1.0000000
B2   B   0.722344386427794   0.777805210905036   0.624591385722895   1.0000000
B2   B   0.555597200096859   0.277963154843177   0.623252329899809   1.0000000
B2   B   0.889159915858381   0.277875596990407   0.624659363859643   1.0000000
B2   B   0.222606296324763   0.777969814829505   0.125261647162603   1.0000000
B2   B   0.055966471995773   0.277904493942486   0.125984704976031   1.0000000
B2   B   0.389193851178841   0.278178413451724   0.129274001636398   1.0000000
B2   B   0.555809231261570   0.777799437137287   0.125531411066532   1.0000000
B2   B   0.889040604013543   0.777884577413133   0.125270590482324   1.0000000
B2   B   0.722344386427794   0.277872508856077   0.125408614276837   1.0000000
B2   B   0.055911345935720   0.944758282291437   0.624454469394753   1.0000000
B2   B   0.389266166477473   0.944733538765711   0.624634706952627   1.0000000
B2   B   0.222706581174282   0.444423719722930   0.623081533895505   1.0000000
B2   B   0.555285687944860   0.444309510639094   0.621457046701184   1.0000000
B2   B   0.722486091443080   0.944564537472725   0.624723149981907   1.0000000
B2   B   0.889040604013543   0.444489359933529   0.624729409518330   1.0000000
B2   B   0.055911345935720   0.444486396977281   0.125545530605160   1.0000000
B2   B   0.222640647047160   0.944848337844765   0.125647613265696   1.0000000
B2   B   0.555870983357277   0.944602158345375   0.125242576985135   1.0000000
B2   B   0.389193851178841   0.444348771060361   0.129274001636398   1.0000000
B2   B   0.889159915858381   0.944617652201382   0.125340636140900   1.0000000
B2   B   0.722088158998624   0.444403930384968   0.125843264932667   1.0000000
B2   B   0.222640647047160   0.611125642536017   0.624352386734303   1.0000000
B2   B   0.055966471995773   0.111395311386743   0.624015295024209   1.0000000
B2   B   0.555597200096859   0.610967378586753   0.623252329899826   1.0000000
B2   B   0.389269859209039   0.111594006713046   0.623378335697071   1.0000000
B2   B   0.888956474637556   0.611144903985076   0.624673755973509   1.0000000
B2   B   0.055843126217296   0.611196330036014   0.125278031144549   1.0000000
B2   B   0.722486091443080   0.111254887303898   0.624723149981907   1.0000000
B2   B   0.222706581174282   0.111616194784795   0.126918466104343   1.0000000
B2   B   0.389269859209039   0.611009185828749   0.126621664302718   1.0000000
B2   B   0.722088158998624   0.611017561946780   0.125843264932667   1.0000000
B2   B   0.555809231261570   0.111343127457496   0.125531411066532   1.0000000
B2   B   0.389269859209039   0.611009185828749   0.623378335697071   1.0000000
B2   B   0.889208350539037   0.111270841936264   0.125424304806469   1.0000000
B2   B   0.222606296324763   0.777969814829505   0.624738352837734   1.0000000
B2   B   0.055966471995773   0.277904493942486   0.624015295024209   1.0000000
B2   B   0.389193851178841   0.278178413451724   0.620725998363178   1.0000000
B2   B   0.555809231261570   0.777799437137287   0.624468588933338   1.0000000
B2   B   0.889040604013543   0.777884577413133   0.624729409518330   1.0000000
B2   B   0.722344386427794   0.277872508856077   0.624591385722895   1.0000000
B2   B   0.055843126217296   0.777980129514810   0.125278031144549   1.0000000
B2   B   0.389266166477473   0.777865961044742   0.125365293047321   1.0000000
B2   B   0.222729076614498   0.278031204974096   0.127793836052340   1.0000000
B2   B   0.722344386427794   0.777805210905036   0.125408614276837   1.0000000
B2   B   0.555597200096859   0.277963154843177   0.126747670100199   1.0000000
B2   B   0.889159915858381   0.277875596990407   0.125340636140900   1.0000000
B2   B   0.055911345935720   0.444486396977281   0.624454469394753   1.0000000
B2   B   0.222640647047160   0.944848337844765   0.624352386734303   1.0000000
B2   B   0.555870983357277   0.944602158345375   0.624757423014715   1.0000000
B2   B   0.389193851178841   0.444348771060361   0.620725998363178   1.0000000
B2   B   0.889159915858381   0.944617652201382   0.624659363859643   1.0000000
B2   B   0.055911345935720   0.944758282291437   0.125545530605160   1.0000000
B2   B   0.722088158998624   0.444403930384968   0.624156735067071   1.0000000
B2   B   0.389266166477473   0.944733538765711   0.125365293047321   1.0000000
B2   B   0.222706581174282   0.444423719722930   0.126918466104343   1.0000000
B2   B   0.222640647047160   0.611125642536017   0.125647613265696   1.0000000
B2   B   0.555285687944860   0.444309510639094   0.128542953298902   1.0000000
B2   B   0.722486091443080   0.944564537472725   0.125276850018951   1.0000000
B2   B   0.889040604013543   0.444489359933529   0.125270590482324   1.0000000
B2   B   0.055843126217296   0.611196330036014   0.624721968855841   1.0000000
B2   B   0.222706581174282   0.111616194784795   0.623081533895505   1.0000000
B2   B   0.722088158998624   0.611017561946780   0.624156735067071   1.0000000
B2   B   0.555809231261570   0.111343127457496   0.624468588933338   1.0000000
B2   B   0.889208350539037   0.111270841936264   0.624575695193293   1.0000000


