data_1
_audit_creation_method   'vasp2cif'
_cell_length_a    14.93631414619966
_cell_length_b    14.936314146199727
_cell_length_c    13.341276283792837
_cell_angle_alpha    90.0
_cell_angle_beta    90.0
_cell_angle_gamma    119.99999999999984

_symmetry_space_group_name_H-M    'P 1'
loop_
_atom_site_label
_atom_site_type_symbol
_atom_site_fract_x
_atom_site_fract_y
_atom_site_fract_z
_atom_site_occupancy
Si2   Si   0.555555555555557   0.444444444444443   0.375000000000000   1.0000000
N2   N   0.111098824379072   0.055548546261138   0.125295525968144   1.0000000
N2   N   0.611148601910948   0.555630537154954   0.123789802392370   1.0000000
N2   N   0.444446496293602   0.055558528613421   0.125472144548922   1.0000000
N2   N   0.944441471386607   0.555553503706398   0.125472144548922   1.0000000
N2   N   0.777782569935822   0.055557951634563   0.125088136772340   1.0000000
N2   N   0.111110687481895   0.722222010407677   0.624762822109006   1.0000000
N2   N   0.444446496293602   0.722221301013519   0.624527855451078   1.0000000
N2   N   0.277747119745755   0.222205110662566   0.624804201854295   1.0000000
N2   N   0.777794889337355   0.722252880254214   0.624804201854295   1.0000000
N2   N   0.611124657583580   0.222205110662566   0.624804201854295   1.0000000
N2   N   0.944442048365311   0.222217430064190   0.624911863227847   1.0000000
N2   N   0.277777989592359   0.722222010407677   0.125237177890980   1.0000000
N2   N   0.111085084155766   0.222209208744537   0.125174116806124   1.0000000
N2   N   0.444451000327680   0.222235333988801   0.125270732014519   1.0000000
N2   N   0.611124657583580   0.722252880254214   0.125195798145635   1.0000000
N2   N   0.944441471386607   0.722221301013519   0.125472144548922   1.0000000
N2   N   0.777790791255366   0.222209208744538   0.125174116806123   1.0000000
N2   N   0.111110558655187   0.888889441344727   0.624695864523064   1.0000000
N2   N   0.444445549356323   0.888889441344727   0.624695864523064   1.0000000
N2   N   0.277747119745755   0.388875342416533   0.624804201854285   1.0000000
N2   N   0.611148601910948   0.388851398089187   0.626210197607629   1.0000000
N2   N   0.777790791255366   0.888914915844305   0.624825883193856   1.0000000
N2   N   0.944451453738903   0.388883611451209   0.624704474031900   1.0000000
N2   N   0.111098824379072   0.388883611451209   0.125295525968144   1.0000000
N2   N   0.277777989592359   0.888889312518046   0.125237177890980   1.0000000
N2   N   0.611116388548603   0.888901175620781   0.125295525968144   1.0000000
N2   N   0.444369462845018   0.388851398089187   0.123789802392370   1.0000000
N2   N   0.944451453738903   0.888901175620781   0.125295525968144   1.0000000
N2   N   0.777794889337355   0.388875342416533   0.125195798145635   1.0000000
N2   N   0.277778698986406   0.555553503706398   0.624527855451078   1.0000000
N2   N   0.111098824379072   0.055548546261138   0.624704474031900   1.0000000
N2   N   0.611148601910948   0.555630537154954   0.626210197607629   1.0000000
N2   N   0.444446496293602   0.055558528613421   0.624527855451078   1.0000000
N2   N   0.944441471386607   0.555553503706398   0.624527855451078   1.0000000
N2   N   0.111110558655187   0.555554450643609   0.125304135476932   1.0000000
N2   N   0.777782569935822   0.055557951634563   0.624911863227847   1.0000000
N2   N   0.277778698986406   0.055558528613421   0.125472144548922   1.0000000
N2   N   0.444451000327680   0.555548999672232   0.125270732014519   1.0000000
N2   N   0.777764666011303   0.555548999672232   0.125270732014519   1.0000000
N2   N   0.611116388548603   0.055548546261138   0.125295525968144   1.0000000
N2   N   0.444451000327680   0.555548999672232   0.624729267985480   1.0000000
N2   N   0.944442048365311   0.055557951634563   0.125088136772340   1.0000000
N2   N   0.277777989592359   0.722222010407677   0.624762822109006   1.0000000
N2   N   0.111085084155766   0.222209208744538   0.624825883193856   1.0000000
N2   N   0.444451000327680   0.222235333988801   0.624729267985480   1.0000000
N2   N   0.611124657583580   0.722252880254214   0.624804201854285   1.0000000
N2   N   0.944441471386607   0.722221301013519   0.624527855451078   1.0000000
N2   N   0.777790791255366   0.222209208744537   0.624825883193856   1.0000000
N2   N   0.111110687481897   0.722222010407677   0.125237177890980   1.0000000
N2   N   0.444446496293602   0.722221301013519   0.125472144548922   1.0000000
N2   N   0.277747119745762   0.222205110662566   0.125195798145633   1.0000000
N2   N   0.777794889337355   0.722252880254214   0.125195798145633   1.0000000
N2   N   0.611124657583580   0.222205110662566   0.125195798145635   1.0000000
N2   N   0.944442048365311   0.222217430064190   0.125088136772340   1.0000000
N2   N   0.111098824379072   0.388883611451208   0.624704474031900   1.0000000
N2   N   0.277777989592359   0.888889312518046   0.624762822109006   1.0000000
N2   N   0.611116388548603   0.888901175620781   0.624704474031900   1.0000000
N2   N   0.444369462845018   0.388851398089187   0.626210197607629   1.0000000
N2   N   0.944451453738903   0.888901175620781   0.624704474031900   1.0000000
N2   N   0.111110558655187   0.888889441344727   0.125304135476932   1.0000000
N2   N   0.777794889337355   0.388875342416533   0.624804201854295   1.0000000
N2   N   0.444445549356323   0.888889441344727   0.125304135476932   1.0000000
N2   N   0.277747119745762   0.388875342416533   0.125195798145635   1.0000000
N2   N   0.277778698986406   0.555553503706398   0.125472144548922   1.0000000
N2   N   0.611148601910948   0.388851398089187   0.123789802392370   1.0000000
N2   N   0.777790791255366   0.888914915844305   0.125174116806124   1.0000000
N2   N   0.944451453738903   0.388883611451209   0.125295525968144   1.0000000
N2   N   0.111110558655187   0.555554450643609   0.624695864523064   1.0000000
N2   N   0.277778698986406   0.055558528613421   0.624527855451078   1.0000000
N2   N   0.777764666011303   0.555548999672232   0.624729267985480   1.0000000
N2   N   0.611116388548603   0.055548546261138   0.624704474031900   1.0000000
N2   N   0.944442048365311   0.055557951634563   0.624911863227847   1.0000000
N2   N   0.054411299146039   0.110354539830101   0.375000000000000   1.0000000
N2   N   0.556032902855760   0.620785368949027   0.375000000000000   1.0000000
N2   N   0.387796823209479   0.108926979752303   0.375000000000000   1.0000000
N2   N   0.891073020247699   0.612203176790468   0.375000000000000   1.0000000
N2   N   0.722609907350671   0.110354539830101   0.375000000000000   1.0000000
N2   N   0.055559906259587   0.777780666613827   0.875000000000000   1.0000000
N2   N   0.388887427020958   0.777780666613827   0.875000000000000   1.0000000
N2   N   0.222219423469496   0.277776378401426   0.875000000000000   1.0000000
N2   N   0.722223621598505   0.777780576530484   0.875000000000000   1.0000000
N2   N   0.555550734268787   0.277767780917458   0.875000000000000   1.0000000
N2   N   0.888890977483763   0.277778465554671   0.875000000000000   1.0000000
N2   N   0.222222222222221   0.777777777777779   0.375000000000000   1.0000000
N2   N   0.054411299146039   0.277390092649267   0.375000000000000   1.0000000
N2   N   0.379214631050869   0.268580867239971   0.375000000000000   1.0000000
N2   N   0.555217452108755   0.781609411284900   0.375000000000000   1.0000000
N2   N   0.893058625842863   0.781609411285000   0.375000000000000   1.0000000
N2   N   0.724064040770980   0.275935959229069   0.375000000000000   1.0000000
N2   N   0.055556243711989   0.944443756287989   0.875000000000000   1.0000000
N2   N   0.388887427020958   0.944440093740316   0.875000000000000   1.0000000
N2   N   0.222216634401715   0.444446670238003   0.875000000000000   1.0000000
N2   N   0.555555555555557   0.444444444444443   0.875000000000000   1.0000000
N2   N   0.722221534445279   0.944445845262367   0.875000000000000   1.0000000
N2   N   0.888896702502967   0.444446670238003   0.875000000000000   1.0000000
N2   N   0.055752865379946   0.444839064093227   0.375000000000000   1.0000000
N2   N   0.221884800247336   0.943501369009837   0.375000000000000   1.0000000
N2   N   0.555160935906898   0.944247134620001   0.375000000000000   1.0000000
N2   N   0.379214631050869   0.443967097144206   0.375000000000000   1.0000000
N2   N   0.889645460170054   0.945588700853892   0.375000000000000   1.0000000
N2   N   0.731419132759780   0.443967097144206   0.375000000000000   1.0000000
N2   N   0.222219333386132   0.611112572978941   0.875000000000000   1.0000000
N2   N   0.055554154737550   0.111109022516185   0.875000000000000   1.0000000
N2   N   0.555550734268787   0.611116286684545   0.875000000000000   1.0000000
N2   N   0.388883642084120   0.111100617501688   0.875000000000000   1.0000000
N2   N   0.888899382498417   0.611116357915736   0.875000000000000   1.0000000
N2   N   0.056498630990095   0.611716764570839   0.375000000000000   1.0000000
N2   N   0.722221534445279   0.111109022516185   0.875000000000000   1.0000000
N2   N   0.218390588715036   0.106941374157079   0.375000000000000   1.0000000
N2   N   0.387796823209479   0.612203176790468   0.375000000000000   1.0000000
N2   N   0.731419132759780   0.620785368949027   0.375000000000000   1.0000000
N2   N   0.555217452108755   0.106941374157079   0.375000000000000   1.0000000
N2   N   0.388883642084120   0.611116357915736   0.875000000000000   1.0000000
N2   N   0.888888888888886   0.111111111111114   0.375000000000000   1.0000000
N2   N   0.222222222222221   0.777777777777779   0.875000000000000   1.0000000
N2   N   0.055554154737550   0.277778465554671   0.875000000000000   1.0000000
N2   N   0.388883713315253   0.277767780917458   0.875000000000000   1.0000000
N2   N   0.555553329761921   0.777783365598334   0.875000000000000   1.0000000
N2   N   0.888896702502967   0.777783365598334   0.875000000000000   1.0000000
N2   N   0.722223621598505   0.277776378401426   0.875000000000000   1.0000000
N2   N   0.056498630990095   0.778115199752729   0.375000000000000   1.0000000
N2   N   0.388283235429278   0.778115199752729   0.375000000000000   1.0000000
N2   N   0.218538585124771   0.275935959229069   0.375000000000000   1.0000000
N2   N   0.724064040770980   0.781461414875199   0.375000000000000   1.0000000
N2   N   0.556032902855760   0.268580867239970   0.375000000000000   1.0000000
N2   N   0.889645460170054   0.277390092649267   0.375000000000000   1.0000000
N2   N   0.055556243711989   0.444445820757310   0.875000000000000   1.0000000
N2   N   0.222219333386132   0.944440093740316   0.875000000000000   1.0000000
N2   N   0.555554179242666   0.944443756287989   0.875000000000000   1.0000000
N2   N   0.388883713315253   0.444449265731140   0.875000000000000   1.0000000
N2   N   0.888890977483763   0.944445845262367   0.875000000000000   1.0000000
N2   N   0.055752865379947   0.944247134620001   0.375000000000000   1.0000000
N2   N   0.722232219082567   0.444449265731140   0.875000000000000   1.0000000
N2   N   0.388283235429278   0.943501369009837   0.375000000000000   1.0000000
N2   N   0.218390588715036   0.444782547891216   0.375000000000000   1.0000000
N2   N   0.221884800247336   0.611716764570839   0.375000000000000   1.0000000
N2   N   0.722609907350671   0.945588700853892   0.375000000000000   1.0000000
N2   N   0.893058625842863   0.444782547891216   0.375000000000000   1.0000000
N2   N   0.055559906259587   0.611112572978941   0.875000000000000   1.0000000
N2   N   0.222216634401715   0.111103297496976   0.875000000000000   1.0000000
N2   N   0.722232219082567   0.611116286684545   0.875000000000000   1.0000000
N2   N   0.555553329761921   0.111103297496976   0.875000000000000   1.0000000
N2   N   0.888888888888886   0.111111111111114   0.875000000000000   1.0000000
B2   B   0.108923361891061   0.053871156153156   0.375000000000000   1.0000000
B2   B   0.623436819041479   0.580206971415774   0.375000000000000   1.0000000
B2   B   0.444051378434107   0.053882574358379   0.375000000000000   1.0000000
B2   B   0.946117425641533   0.555948621565781   0.375000000000000   1.0000000
B2   B   0.778296103023143   0.055814718178201   0.375000000000000   1.0000000
B2   B   0.111110649563718   0.722221991448479   0.875000000000000   1.0000000
B2   B   0.444444462283317   0.722221631506147   0.875000000000000   1.0000000
B2   B   0.277787492997848   0.222226108427297   0.875000000000000   1.0000000
B2   B   0.777773891572648   0.722212507002121   0.875000000000000   1.0000000
B2   B   0.611105282096109   0.222226108427297   0.875000000000000   1.0000000
B2   B   0.944444471523059   0.222222276379446   0.875000000000000   1.0000000
B2   B   0.277513559056448   0.722486440943715   0.375000000000000   1.0000000
B2   B   0.108665393833621   0.220999363583522   0.375000000000000   1.0000000
B2   B   0.443026367929855   0.219386069193159   0.375000000000000   1.0000000
B2   B   0.612358065476066   0.729606326639194   0.375000000000000   1.0000000
B2   B   0.946117425641533   0.723502137409137   0.375000000000000   1.0000000
B2   B   0.779000636416633   0.220999363583522   0.375000000000000   1.0000000
B2   B   0.111110342685291   0.888889657314729   0.875000000000000   1.0000000
B2   B   0.444445981296066   0.888889657314729   0.875000000000000   1.0000000
B2   B   0.277787492997848   0.388894717903883   0.875000000000000   1.0000000
B2   B   0.611107243520149   0.388892756479825   0.875000000000000   1.0000000
B2   B   0.777777017659887   0.888887368653128   0.875000000000000   1.0000000
B2   B   0.944444008144318   0.388888628736086   0.875000000000000   1.0000000
B2   B   0.108923361891060   0.388385539071228   0.375000000000000   1.0000000
B2   B   0.277513559056448   0.888360451446225   0.375000000000000   1.0000000
B2   B   0.611614460928562   0.891076638108930   0.375000000000000   1.0000000
B2   B   0.419793028583994   0.376563180958777   0.375000000000000   1.0000000
B2   B   0.946128843846792   0.891076638108930   0.375000000000000   1.0000000
B2   B   0.783914927829924   0.387641934523994   0.375000000000000   1.0000000
B2   B   0.277778368493940   0.555555537716763   0.875000000000000   1.0000000
B2   B   0.111111287258297   0.055555991855602   0.875000000000000   1.0000000
B2   B   0.611107243520149   0.555547820373679   0.875000000000000   1.0000000
B2   B   0.444444462283317   0.055556164110618   0.875000000000000   1.0000000
B2   B   0.944443835889317   0.555555537716763   0.875000000000000   1.0000000
B2   B   0.111242895026199   0.555819123385559   0.375000000000000   1.0000000
B2   B   0.777777723620495   0.055555528476941   0.875000000000000   1.0000000
B2   B   0.276497862590908   0.053882574358379   0.375000000000000   1.0000000
B2   B   0.443026367929855   0.556973632070161   0.375000000000000   1.0000000
B2   B   0.780613930806954   0.556973632070161   0.375000000000000   1.0000000
B2   B   0.611614460928562   0.053871156153156   0.375000000000000   1.0000000
B2   B   0.444447555481160   0.555552444518714   0.875000000000000   1.0000000
B2   B   0.944185281821787   0.055814718178200   0.375000000000000   1.0000000
B2   B   0.277778008551503   0.722221991448479   0.875000000000000   1.0000000
B2   B   0.111112631346803   0.222222982340085   0.875000000000000   1.0000000
B2   B   0.444447555481160   0.222228444295691   0.875000000000000   1.0000000
B2   B   0.611105282096109   0.722212507002121   0.875000000000000   1.0000000
B2   B   0.944443835889317   0.722221631506147   0.875000000000000   1.0000000
B2   B   0.777777017659887   0.222222982340085   0.875000000000000   1.0000000
B2   B   0.111639548553911   0.722486440943715   0.375000000000000   1.0000000
B2   B   0.444051378434107   0.723502137409137   0.375000000000000   1.0000000
B2   B   0.270393673360620   0.216085072170090   0.375000000000000   1.0000000
B2   B   0.783914927829924   0.729606326639194   0.375000000000000   1.0000000
B2   B   0.612358065476066   0.216085072170090   0.375000000000000   1.0000000
B2   B   0.944185281821787   0.221703896976918   0.375000000000000   1.0000000
B2   B   0.111111287258295   0.388888628736086   0.875000000000000   1.0000000
B2   B   0.277778008551503   0.888889350436335   0.875000000000000   1.0000000
B2   B   0.611111371263915   0.888888712741832   0.875000000000000   1.0000000
B2   B   0.444452179626381   0.388892756479825   0.875000000000000   1.0000000
B2   B   0.944444008144318   0.888888712741832   0.875000000000000   1.0000000
B2   B   0.111242895026199   0.888757104973816   0.375000000000000   1.0000000
B2   B   0.777773891572637   0.388894717903883   0.875000000000000   1.0000000
B2   B   0.444180876614329   0.888757104973816   0.375000000000000   1.0000000
B2   B   0.270393673360620   0.387641934523994   0.375000000000000   1.0000000
B2   B   0.276497862590908   0.555948621565781   0.375000000000000   1.0000000
B2   B   0.623436819041479   0.376563180958777   0.375000000000000   1.0000000
B2   B   0.779000636416633   0.891334606166336   0.375000000000000   1.0000000
B2   B   0.946128843846792   0.388385539071228   0.375000000000000   1.0000000
B2   B   0.111110342685291   0.555554018703849   0.875000000000000   1.0000000
B2   B   0.277778368493940   0.055556164110618   0.875000000000000   1.0000000
B2   B   0.777771555704345   0.555552444518714   0.875000000000000   1.0000000
B2   B   0.611111371263915   0.055555991855602   0.875000000000000   1.0000000
B2   B   0.944444471523059   0.055555528476941   0.875000000000000   1.0000000
B2   B   0.055540598862474   0.111108164902151   0.125178393090447   1.0000000
B2   B   0.555585158210264   0.611116297210700   0.124757008799197   1.0000000
B2   B   0.388903286884965   0.111139907103220   0.125450380863038   1.0000000
B2   B   0.888860092896727   0.611096713115032   0.125450380863038   1.0000000
B2   B   0.722234232706362   0.111108164902151   0.125178393090447   1.0000000
B2   B   0.055545858746050   0.777775562344512   0.624693351595469   1.0000000
B2   B   0.388896370265218   0.777775562344512   0.624693351595469   1.0000000
B2   B   0.222198141978435   0.277765737655882   0.624836829777627   1.0000000
B2   B   0.722234262344164   0.777801858021572   0.624836829777627   1.0000000
B2   B   0.555585158210265   0.277802194332794   0.625242991200837   1.0000000
B2   B   0.888891835097861   0.277765767293694   0.624821606909596   1.0000000
B2   B   0.222222222222221   0.777777777777779   0.125166100429063   1.0000000
B2   B   0.055540598862474   0.277765767293694   0.125178393090447   1.0000000
B2   B   0.388883702789211   0.277802194332796   0.124757008799197   1.0000000
B2   B   0.555573330119248   0.777789259410963   0.125338049120313   1.0000000
B2   B   0.888882595958480   0.777789259410963   0.125338049120313   1.0000000
B2   B   0.722234262344164   0.277765737655882   0.125163170222267   1.0000000
B2   B   0.055549320602450   0.944450679397481   0.624714441059950   1.0000000
B2   B   0.388896370265218   0.944454141254119   0.624693351595469   1.0000000
B2   B   0.222210740588954   0.444426669880765   0.624661950879721   1.0000000
B2   B   0.555555555555557   0.444444444444443   0.625611021520719   1.0000000
B2   B   0.722234232706362   0.944459401137357   0.624821606909596   1.0000000
B2   B   0.888882595958480   0.444426669880765   0.624661950879721   1.0000000
B2   B   0.055549320602450   0.444431974538313   0.125285558940085   1.0000000
B2   B   0.222224437655437   0.944454141254119   0.125306648404556   1.0000000
B2   B   0.555568025461740   0.944450679397481   0.125285558940085   1.0000000
B2   B   0.388883702789211   0.444414841789700   0.124757008799197   1.0000000
B2   B   0.888891835097861   0.944459401137357   0.125178393090447   1.0000000
B2   B   0.722197805667135   0.444414841789700   0.124757008799197   1.0000000
B2   B   0.222224437655437   0.611103629734817   0.624693351595469   1.0000000
B2   B   0.055540598862474   0.111108164902151   0.624821606909596   1.0000000
B2   B   0.555585158210264   0.611116297210700   0.625242991200837   1.0000000
B2   B   0.388903286884965   0.111139907103220   0.624549619136979   1.0000000
B2   B   0.888860092896727   0.611096713115032   0.624549619136979   1.0000000
B2   B   0.055545858746050   0.611103629734817   0.125306648404556   1.0000000
B2   B   0.722234232706362   0.111108164902151   0.624821606909596   1.0000000
B2   B   0.222210740588954   0.111117404041541   0.125338049120313   1.0000000
B2   B   0.388903286884965   0.611096713115032   0.125450380863038   1.0000000
B2   B   0.722197805667135   0.611116297210700   0.124757008799197   1.0000000
B2   B   0.555573330119248   0.111117404041541   0.125338049120313   1.0000000
B2   B   0.388903286884965   0.611096713115032   0.624549619136979   1.0000000
B2   B   0.888888888888886   0.111111111111114   0.125070876086515   1.0000000
B2   B   0.222222222222221   0.777777777777779   0.624833899570728   1.0000000
B2   B   0.055540598862474   0.277765767293694   0.624821606909596   1.0000000
B2   B   0.388883702789214   0.277802194332794   0.625242991200837   1.0000000
B2   B   0.555573330119248   0.777789259410963   0.624661950879721   1.0000000
B2   B   0.888882595958480   0.777789259410963   0.624661950879721   1.0000000
B2   B   0.722234262344164   0.277765737655882   0.624836829777627   1.0000000
B2   B   0.055545858746050   0.777775562344512   0.125306648404556   1.0000000
B2   B   0.388896370265219   0.777775562344512   0.125306648404556   1.0000000
B2   B   0.222198141978435   0.277765737655882   0.125163170222267   1.0000000
B2   B   0.722234262344164   0.777801858021572   0.125163170222267   1.0000000
B2   B   0.555585158210265   0.277802194332794   0.124757008799197   1.0000000
B2   B   0.888891835097861   0.277765767293694   0.125178393090447   1.0000000
B2   B   0.055549320602450   0.444431974538313   0.624714441059950   1.0000000
B2   B   0.222224437655437   0.944454141254119   0.624693351595469   1.0000000
B2   B   0.555568025461740   0.944450679397481   0.624714441059950   1.0000000
B2   B   0.388883702789214   0.444414841789700   0.625242991200837   1.0000000
B2   B   0.888891835097861   0.944459401137357   0.624821606909596   1.0000000
B2   B   0.055549320602450   0.944450679397481   0.125285558940085   1.0000000
B2   B   0.722197805667135   0.444414841789700   0.625242991200837   1.0000000
B2   B   0.388896370265218   0.944454141254119   0.125306648404556   1.0000000
B2   B   0.222210740588954   0.444426669880765   0.125338049120313   1.0000000
B2   B   0.222224437655437   0.611103629734817   0.125306648404556   1.0000000
B2   B   0.555555555555557   0.444444444444443   0.124388978479281   1.0000000
B2   B   0.722234232706362   0.944459401137357   0.125178393090447   1.0000000
B2   B   0.888882595958480   0.444426669880765   0.125338049120313   1.0000000
B2   B   0.055545858746048   0.611103629734817   0.624693351595469   1.0000000
B2   B   0.222210740588954   0.111117404041541   0.624661950879721   1.0000000
B2   B   0.722197805667135   0.611116297210700   0.625242991200837   1.0000000
B2   B   0.555573330119248   0.111117404041541   0.624661950879721   1.0000000
B2   B   0.888888888888886   0.111111111111114   0.624929123913604   1.0000000


