data_1
_audit_creation_method   'vasp2cif'
_cell_length_a    17.52789999999977
_cell_length_b    17.52789999999977
_cell_length_c    15.0
_cell_angle_alpha    90.0
_cell_angle_beta    90.0
_cell_angle_gamma    119.99999999999916

_symmetry_space_group_name_H-M    'P 1'
loop_
_atom_site_label
_atom_site_type_symbol
_atom_site_fract_x
_atom_site_fract_y
_atom_site_fract_z
_atom_site_occupancy
B2   B   0.904741107975638   0.952313490873428   0.111005065519145   1.0000000
B2   B   0.904817079031321   0.095228451374194   0.111034348467234   1.0000000
B2   B   0.904810105324251   0.238153081875373   0.111037371563653   1.0000000
B2   B   0.904721603860845   0.381003953685431   0.110987072328017   1.0000000
B2   B   0.905250468605168   0.523931670235373   0.110991075295669   1.0000000
B2   B   0.905503291828334   0.667030284240075   0.111052766672799   1.0000000
B2   B   0.905256966726630   0.809891239514866   0.111036817381033   1.0000000
B2   B   0.047782760140201   0.952481613827167   0.110998426264160   1.0000000
B2   B   0.047809342024619   0.095326886950314   0.111002450975187   1.0000000
B2   B   0.047887712868078   0.238219849630058   0.110987588982513   1.0000000
B2   B   0.047817261307983   0.381040694949614   0.111006708346838   1.0000000
B2   B   0.047775943402710   0.523866646513269   0.110997144551308   1.0000000
B2   B   0.047869622472217   0.666783901690401   0.111009330078059   1.0000000
B2   B   0.047876797857985   0.809653026423032   0.110986156926703   1.0000000
B2   B   0.190377296301527   0.952147029296908   0.110984428996766   1.0000000
B2   B   0.190470776424796   0.095070315268092   0.111027636178636   1.0000000
B2   B   0.190985046100096   0.238188708047506   0.110989550530608   1.0000000
B2   B   0.190994997925018   0.381347994157110   0.110984438536671   1.0000000
B2   B   0.190466059340154   0.523941534680746   0.111050563397906   1.0000000
B2   B   0.190378639540089   0.666777911565636   0.111054808502560   1.0000000
B2   B   0.190503880839421   0.809532683262391   0.110989446815412   1.0000000
B2   B   0.333260930586004   0.952176330186261   0.111008962749888   1.0000000
B2   B   0.332912412709687   0.094381149303870   0.111055746279821   1.0000000
B2   B   0.333169830187470   0.237028484518152   0.111058686017264   1.0000000
B2   B   0.334688752222420   0.381633354326141   0.111050605375521   1.0000000
B2   B   0.333158155163265   0.524712530189560   0.111062614118587   1.0000000
B2   B   0.332920038470662   0.667078374246409   0.111076075972131   1.0000000
B2   B   0.333266254606231   0.809644750028945   0.111055139406597   1.0000000
B2   B   0.476140063737363   0.952353343513474   0.110999547997095   1.0000000
B2   B   0.476054716866612   0.095371501983208   0.110980125091894   1.0000000
B2   B   0.475237540042035   0.237847820467973   0.111030654639901   1.0000000
B2   B   0.475249631085919   0.665981833287055   0.111049619005584   1.0000000
B2   B   0.476072064887359   0.809255410358187   0.111043869970706   1.0000000
B2   B   0.618920322134437   0.952224601333009   0.111006803369708   1.0000000
B2   B   0.618905292257360   0.095261371851572   0.110990721430888   1.0000000
B2   B   0.618697870096447   0.238166834630635   0.110995939970305   1.0000000
B2   B   0.618633457664672   0.381756710292959   0.111018477980921   1.0000000
B2   B   0.622268285930391   0.525443885422573   0.111096166019167   1.0000000
B2   B   0.618643108267738   0.665471431546355   0.111030920296347   1.0000000
B2   B   0.618728590725326   0.809129649616247   0.110986517602986   1.0000000
B2   B   0.761778490930370   0.952182771280146   0.110992178176578   1.0000000
B2   B   0.761820563548629   0.095196557583958   0.111038640374920   1.0000000
B2   B   0.761756546599867   0.238163653546945   0.111042666905475   1.0000000
B2   B   0.761653086631896   0.381148497668546   0.110998724820711   1.0000000
B2   B   0.763206463936129   0.524325330744180   0.111016529988202   1.0000000
B2   B   0.763218892415702   0.667458864508424   0.111027792133681   1.0000000
B2   B   0.761671684295958   0.809106830815470   0.110996517219509   1.0000000
C2   C   0.474423841821541   0.379440179213833   0.111296116512291   1.0000000
C2   C   0.474394248186138   0.523614707510923   0.111175981172477   1.0000000
C2   C   0.519584136071304   0.474142997008229   0.111291516932773   1.0000000
N2   N   0.952527839715586   0.904915913161529   0.110998837569875   1.0000000
N2   N   0.952543395398479   0.047675340335262   0.110997265161191   1.0000000
N2   N   0.952715935741555   0.190642500059661   0.111007881831207   1.0000000
N2   N   0.952538175290494   0.333439376703481   0.110997052253157   1.0000000
N2   N   0.952519079643055   0.476180573463854   0.110951729989677   1.0000000
N2   N   0.952559432383537   0.619079128159378   0.111004862250532   1.0000000
N2   N   0.952560846364471   0.762039569501141   0.111020194017945   1.0000000
N2   N   0.095319986807130   0.904851914481657   0.110957640162903   1.0000000
N2   N   0.095543508222258   0.047897087072164   0.110992602897154   1.0000000
N2   N   0.096123242992714   0.191037501664005   0.110972195296832   1.0000000
N2   N   0.096129670295891   0.333640050235335   0.110967912332988   1.0000000
N2   N   0.095539556175099   0.476202951348469   0.111002177375619   1.0000000
N2   N   0.095317260358989   0.619025764773860   0.111005081691987   1.0000000
N2   N   0.095336578380144   0.761949020098267   0.110970354816851   1.0000000
N2   N   0.238161337588761   0.904804170520941   0.110967046157676   1.0000000
N2   N   0.238102770914528   0.047614645540512   0.111018518342781   1.0000000
N2   N   0.238708414359350   0.190922073299273   0.111003752051850   1.0000000
N2   N   0.240526857750447   0.334540447664872   0.110962181800858   1.0000000
N2   N   0.238702641554281   0.476335337388179   0.111016928625936   1.0000000
N2   N   0.238102871949878   0.619030877930048   0.111057081413813   1.0000000
N2   N   0.238162107052798   0.761910901250244   0.111020015645021   1.0000000
N2   N   0.380997041772086   0.904777442372922   0.111006799297390   1.0000000
N2   N   0.380953530669980   0.047648404812904   0.110999657563535   1.0000000
N2   N   0.380742096866986   0.190218769065278   0.111042194692004   1.0000000
N2   N   0.382850188174742   0.333233775459040   0.111102454410245   1.0000000
N2   N   0.382842600195015   0.478203863293289   0.111076028820113   1.0000000
N2   N   0.380745328626827   0.619087694331105   0.111048478764543   1.0000000
N2   N   0.380961810989556   0.761861894102925   0.111051290986685   1.0000000
N2   N   0.523695682919710   0.904403471338065   0.110997203703336   1.0000000
N2   N   0.523685320976619   0.047854349295441   0.110955783139713   1.0000000
N2   N   0.523471218718398   0.191371088438754   0.110967625265679   1.0000000
N2   N   0.521356814327588   0.334758616157102   0.111084068043470   1.0000000
N2   N   0.521363171245314   0.615216577465341   0.111067901291254   1.0000000
N2   N   0.523494751802723   0.760691085957694   0.111000891027612   1.0000000
N2   N   0.666317728457197   0.904109503541997   0.110973618499894   1.0000000
N2   N   0.666469228216921   0.047522787043283   0.110996229956463   1.0000000
N2   N   0.666295051527679   0.190774603135603   0.111001151341481   1.0000000
N2   N   0.665346878063557   0.333800540531492   0.110972912113710   1.0000000
N2   N   0.667265266413064   0.476774575423783   0.111005768555412   1.0000000
N2   N   0.667283456447987   0.619096573756514   0.111010140023140   1.0000000
N2   N   0.665368404266386   0.760139754997674   0.110970753772226   1.0000000
N2   N   0.809105554310962   0.904184122686536   0.110978800513985   1.0000000
N2   N   0.809436669149526   0.047445046637128   0.111011784037024   1.0000000
N2   N   0.809428891797297   0.190564160834125   0.111035387435998   1.0000000
N2   N   0.809083961514705   0.333493891194719   0.110995351035565   1.0000000
N2   N   0.809698306229381   0.476282055629593   0.110990849472809   1.0000000
N2   N   0.809842966704007   0.619204188818795   0.111024816100349   1.0000000
N2   N   0.809708404998263   0.761999160277577   0.111013694599747   1.0000000


