data_1
_audit_creation_method   'vasp2cif'
_cell_length_a    14.93631414619966
_cell_length_b    14.936314146199727
_cell_length_c    13.341276283792837
_cell_angle_alpha    90.0
_cell_angle_beta    90.0
_cell_angle_gamma    119.99999999999984

_symmetry_space_group_name_H-M    'P 1'
loop_
_atom_site_label
_atom_site_type_symbol
_atom_site_fract_x
_atom_site_fract_y
_atom_site_fract_z
_atom_site_occupancy
C2   C   0.440678561985394   0.387005947659371   0.375000000000000   1.0000000
O2   O   0.555494122887596   0.444413728110462   0.375000000000000   1.0000000
N2   N   0.111816638767764   0.055915482231629   0.125107571513518   1.0000000
N2   N   0.611813140416058   0.555878661988482   0.126278849232342   1.0000000
N2   N   0.445160632269119   0.055921494529973   0.125125298640189   1.0000000
N2   N   0.945149264320618   0.555901291870133   0.125067574736889   1.0000000
N2   N   0.778474490178850   0.055903911756089   0.124906862275569   1.0000000
N2   N   0.111821416713050   0.722577375023187   0.625010332673257   1.0000000
N2   N   0.445160632269119   0.722572471072490   0.624874701359815   1.0000000
N2   N   0.278463014685607   0.222595981888285   0.624823099153260   1.0000000
N2   N   0.778488747476183   0.722598872537847   0.624708683113060   1.0000000
N2   N   0.611833151942179   0.222555613268000   0.624743155170286   1.0000000
N2   N   0.945126832959640   0.222563740374228   0.625023955638146   1.0000000
N2   N   0.278483868784864   0.722568152754674   0.125058932480759   1.0000000
N2   N   0.111759901978355   0.222546617655841   0.124985166546783   1.0000000
N2   N   0.445224553427613   0.222617275197314   0.125156324501905   1.0000000
N2   N   0.611833151942179   0.722610872007507   0.125256844829704   1.0000000
N2   N   0.945149264320618   0.722581305783850   0.125067574736889   1.0000000
N2   N   0.778488365833315   0.222549069135566   0.125007140568458   1.0000000
N2   N   0.111828915570928   0.889255402171894   0.624976598756269   1.0000000
N2   N   0.445140332504721   0.889236832919029   0.624949279561089   1.0000000
N2   N   0.278463014685607   0.389200366130633   0.624823099153260   1.0000000
N2   N   0.611813140416058   0.389267811760908   0.623721150767647   1.0000000
N2   N   0.778488365833315   0.889272630031080   0.624992859431550   1.0000000
N2   N   0.945149322696898   0.389233437390808   0.624971337112192   1.0000000
N2   N   0.111816638767764   0.389234489869458   0.125107571513518   1.0000000
N2   N   0.278483868784864   0.889249049363531   0.125058932480759   1.0000000
N2   N   0.611799966300081   0.889249360077463   0.124995092836387   1.0000000
N2   N   0.445160845119652   0.389247089226494   0.124540592494137   1.0000000
N2   N   0.945149322696898   0.889249218639422   0.125028662887797   1.0000000
N2   N   0.778488747476183   0.389223208271646   0.125291316886949   1.0000000
N2   N   0.278499881103695   0.555892748611532   0.624884882371814   1.0000000
N2   N   0.111816638767764   0.055915482231629   0.624892428486479   1.0000000
N2   N   0.611813140416058   0.555878661988482   0.623721150767647   1.0000000
N2   N   0.445160632269119   0.055921494529973   0.624874701359815   1.0000000
N2   N   0.945149264320618   0.555901291870133   0.624932425263126   1.0000000
N2   N   0.111828915570928   0.555906846732369   0.125023401243728   1.0000000
N2   N   0.778474490178850   0.055903911756089   0.625093137724428   1.0000000
N2   N   0.278499881103695   0.055940465825500   0.125115117628193   1.0000000
N2   N   0.445224553427613   0.555940611563644   0.125156324501905   1.0000000
N2   N   0.778501917628648   0.555917625480989   0.125510603440339   1.0000000
N2   N   0.611799966300081   0.055883939555950   0.124995092836387   1.0000000
N2   N   0.445224553427613   0.555940611563644   0.624843675498094   1.0000000
N2   N   0.945126832959640   0.055896425918742   0.124976044361857   1.0000000
N2   N   0.278483868784864   0.722568152754674   0.624941067519256   1.0000000
N2   N   0.111759901978355   0.222546617655841   0.625014833453210   1.0000000
N2   N   0.445224553427613   0.222617275197314   0.624843675498094   1.0000000
N2   N   0.611833151942179   0.722610872007507   0.624743155170286   1.0000000
N2   N   0.945149264320618   0.722581305783850   0.624932425263126   1.0000000
N2   N   0.778488365833315   0.222549069135566   0.624992859431550   1.0000000
N2   N   0.111821416713050   0.722577375023187   0.124989667326748   1.0000000
N2   N   0.445160632269119   0.722572471072490   0.125125298640189   1.0000000
N2   N   0.278463014685607   0.222595981888285   0.125176900846743   1.0000000
N2   N   0.778488747476183   0.722598872537845   0.125291316886949   1.0000000
N2   N   0.611833151942179   0.222555613268000   0.125256844829704   1.0000000
N2   N   0.945126832959640   0.222563740374228   0.124976044361857   1.0000000
N2   N   0.111816638767764   0.389234489869458   0.624892428486479   1.0000000
N2   N   0.278483868784864   0.889249049363531   0.624941067519256   1.0000000
N2   N   0.611799966300081   0.889249360077463   0.625004907163616   1.0000000
N2   N   0.445160845119652   0.389247089226494   0.625459407505871   1.0000000
N2   N   0.945149322696898   0.889249218639422   0.624971337112192   1.0000000
N2   N   0.111828915570928   0.889255402171894   0.125023401243728   1.0000000
N2   N   0.778488747476183   0.389223208271646   0.624708683113060   1.0000000
N2   N   0.445140332504721   0.889236832919029   0.125050720438911   1.0000000
N2   N   0.278463014685607   0.389200366130633   0.125176900846743   1.0000000
N2   N   0.278499881103695   0.555892748611532   0.125115117628193   1.0000000
N2   N   0.611813140416058   0.389267811760909   0.126278849232342   1.0000000
N2   N   0.778488365833315   0.889272630031080   0.125007140568458   1.0000000
N2   N   0.945149322696898   0.389233437390808   0.125028662887797   1.0000000
N2   N   0.111828915570928   0.555906846732369   0.624976598756269   1.0000000
N2   N   0.278499881103695   0.055940465825500   0.624884882371814   1.0000000
N2   N   0.778501917628648   0.555917625480989   0.624489396559657   1.0000000
N2   N   0.611799966300081   0.055883939555950   0.625004907163616   1.0000000
N2   N   0.945126832959640   0.055896425918742   0.625023955638146   1.0000000
N2   N   0.055282292841374   0.111030671473745   0.375000000000000   1.0000000
N2   N   0.554454541709639   0.609596278428197   0.375000000000000   1.0000000
N2   N   0.387556661536881   0.110610903793163   0.375000000000000   1.0000000
N2   N   0.887578258796532   0.610455796064938   0.375000000000000   1.0000000
N2   N   0.721402992660893   0.110786508812835   0.375000000000000   1.0000000
N2   N   0.054945007680467   0.777470518587680   0.875000000000000   1.0000000
N2   N   0.388288868722505   0.777474888656400   0.875000000000000   1.0000000
N2   N   0.221606664937102   0.277469999135221   0.875000000000000   1.0000000
N2   N   0.721611515244390   0.777473817674960   0.875000000000000   1.0000000
N2   N   0.554951660215419   0.277480773456202   0.875000000000000   1.0000000
N2   N   0.888281498639680   0.277479434040556   0.875000000000000   1.0000000
N2   N   0.220995828139538   0.777164580736430   0.375000000000000   1.0000000
N2   N   0.055282292841374   0.277584954700965   0.375000000000000   1.0000000
N2   N   0.390126479869327   0.279438025986193   0.375000000000000   1.0000000
N2   N   0.554585546920002   0.776920921220956   0.375000000000000   1.0000000
N2   N   0.887631251157338   0.777088349658440   0.375000000000000   1.0000000
N2   N   0.721189769236635   0.277494145964250   0.375000000000000   1.0000000
N2   N   0.054948303261590   0.944134386760962   0.875000000000000   1.0000000
N2   N   0.388288868722505   0.944147313399432   0.875000000000000   1.0000000
N2   N   0.221611875366297   0.444141875338860   0.875000000000000   1.0000000
N2   N   0.554951332184679   0.444142332759004   0.875000000000000   1.0000000
N2   N   0.721610079056107   0.944139640504717   0.875000000000000   1.0000000
N2   N   0.888275501473178   0.444141030202356   0.875000000000000   1.0000000
N2   N   0.054929209550910   0.444029423762258   0.375000000000000   1.0000000
N2   N   0.221043602580316   0.943589658668399   0.375000000000000   1.0000000
N2   N   0.554646849668548   0.943990091500939   0.375000000000000   1.0000000
N2   N   0.390126479869327   0.444021787216470   0.375000000000000   1.0000000
N2   N   0.888152759266957   0.944093999059183   0.375000000000000   1.0000000
N2   N   0.720408862635936   0.444198426043661   0.375000000000000   1.0000000
N2   N   0.221614569948453   0.610807546508017   0.875000000000000   1.0000000
N2   N   0.054950858271318   0.110802302600248   0.875000000000000   1.0000000
N2   N   0.554951660215419   0.610804220092561   0.875000000000000   1.0000000
N2   N   0.388287190356386   0.110815967134503   0.875000000000000   1.0000000
N2   N   0.888269783527528   0.610801558430421   0.875000000000000   1.0000000
N2   N   0.054315430478889   0.610522494786729   0.375000000000000   1.0000000
N2   N   0.721610079056107   0.110803771884746   0.875000000000000   1.0000000
N2   N   0.222433728549013   0.111202215772371   0.375000000000000   1.0000000
N2   N   0.387556661536882   0.610279091077063   0.375000000000000   1.0000000
N2   N   0.720408862635936   0.609543769925591   0.375000000000000   1.0000000
N2   N   0.554585546920002   0.110997959032385   0.375000000000000   1.0000000
N2   N   0.388287190356385   0.610804556555208   0.875000000000000   1.0000000
N2   N   0.888280466724342   0.110806900028840   0.375000000000000   1.0000000
N2   N   0.221615574350420   0.777474453841870   0.875000000000000   1.0000000
N2   N   0.054950858271318   0.277481889004406   0.875000000000000   1.0000000
N2   N   0.388280733525139   0.277474616275722   0.875000000000000   1.0000000
N2   N   0.554943745563325   0.777470601240487   0.875000000000000   1.0000000
N2   N   0.888275501473178   0.777467804604149   0.875000000000000   1.0000000
N2   N   0.721611515244390   0.277471030902772   0.875000000000000   1.0000000
N2   N   0.054315430478889   0.777126269025500   0.375000000000000   1.0000000
N2   N   0.387847876041206   0.777182269906767   0.375000000000000   1.0000000
N2   N   0.222396153812347   0.277864743572838   0.375000000000000   1.0000000
N2   N   0.721189769236635   0.777028956605706   0.375000000000000   1.0000000
N2   N   0.554454541709639   0.278191596614781   0.375000000000000   1.0000000
N2   N   0.888152759266957   0.277392093541113   0.375000000000000   1.0000000
N2   N   0.054948303261590   0.444147249833963   0.875000000000000   1.0000000
N2   N   0.221614569948452   0.944140356773802   0.875000000000000   1.0000000
N2   N   0.554941601433825   0.944137467383590   0.875000000000000   1.0000000
N2   N   0.388280733525139   0.444139450582752   0.875000000000000   1.0000000
N2   N   0.888281498639680   0.944135397932469   0.875000000000000   1.0000000
N2   N   0.054929209550910   0.944233119121981   0.375000000000000   1.0000000
N2   N   0.721606289766361   0.444135825982796   0.875000000000000   1.0000000
N2   N   0.387847876041206   0.943998939467770   0.375000000000000   1.0000000
N2   N   0.222433728549013   0.444564846109982   0.375000000000000   1.0000000
N2   N   0.221043602580316   0.610787277245238   0.375000000000000   1.0000000
N2   N   0.721402992660893   0.943949817181377   0.375000000000000   1.0000000
N2   N   0.887631251157338   0.443876234832238   0.375000000000000   1.0000000
N2   N   0.054945007680467   0.610807822426101   0.875000000000000   1.0000000
N2   N   0.221611875366297   0.110803333360771   0.875000000000000   1.0000000
N2   N   0.721606289766361   0.610803797116907   0.875000000000000   1.0000000
N2   N   0.554943745563325   0.110806477656169   0.875000000000000   1.0000000
N2   N   0.888282853750664   0.110808093542002   0.875000000000000   1.0000000
B2   B   0.111225436860681   0.055810206206845   0.375000000000000   1.0000000
B2   B   0.610606017285078   0.556837270201138   0.375000000000000   1.0000000
B2   B   0.443138689929692   0.055287163775185   0.375000000000000   1.0000000
B2   B   0.943385120233134   0.554931417587737   0.375000000000000   1.0000000
B2   B   0.777145898163843   0.055239615748591   0.375000000000000   1.0000000
B2   B   0.110520707395210   0.721927020364270   0.875000000000000   1.0000000
B2   B   0.443848784914518   0.721906569330419   0.875000000000000   1.0000000
B2   B   0.277117190693288   0.221902858705313   0.875000000000000   1.0000000
B2   B   0.777179110152524   0.721940374534261   0.875000000000000   1.0000000
B2   B   0.610435967982431   0.221884785162299   0.875000000000000   1.0000000
B2   B   0.943804245744784   0.221900589366124   0.875000000000000   1.0000000
B2   B   0.276625419781656   0.721709444519367   0.375000000000000   1.0000000
B2   B   0.111651022179528   0.222492177756425   0.375000000000000   1.0000000
B2   B   0.441917970069572   0.221905192441182   0.375000000000000   1.0000000
B2   B   0.609849658419779   0.721213335948765   0.375000000000000   1.0000000
B2   B   0.943385120233134   0.721787035978724   0.375000000000000   1.0000000
B2   B   0.777023203025301   0.221841927798903   0.375000000000000   1.0000000
B2   B   0.110524023200786   0.888597212956345   0.875000000000000   1.0000000
B2   B   0.443854604722037   0.888593969027683   0.875000000000000   1.0000000
B2   B   0.277117190693288   0.388547665321303   0.875000000000000   1.0000000
B2   B   0.610426942052969   0.388543955255105   0.875000000000000   1.0000000
B2   B   0.777181886893990   0.888604516745863   0.875000000000000   1.0000000
B2   B   0.943792309091449   0.388556279203210   0.875000000000000   1.0000000
B2   B   0.111225436860681   0.388748563987163   0.375000000000000   1.0000000
B2   B   0.276625419781656   0.888249308595615   0.375000000000000   1.0000000
B2   B   0.610045387193378   0.888144842045823   0.375000000000000   1.0000000
B2   B   0.943679550360242   0.888641664324085   0.375000000000000   1.0000000
B2   B   0.776712388434565   0.388207589801391   0.375000000000000   1.0000000
B2   B   0.277124345568247   0.555212139397958   0.875000000000000   1.0000000
B2   B   0.110530654391774   0.055267141335988   0.875000000000000   1.0000000
B2   B   0.610426942052969   0.555216320131195   0.875000000000000   1.0000000
B2   B   0.443848784914518   0.055275548917434   0.875000000000000   1.0000000
B2   B   0.943779261085507   0.555218526224871   0.875000000000000   1.0000000
B2   B   0.110180887799314   0.555089251325478   0.375000000000000   1.0000000
B2   B   0.777182057204380   0.055257695268861   0.875000000000000   1.0000000
B2   B   0.276756855825332   0.054751901383239   0.375000000000000   1.0000000
B2   B   0.441917970069572   0.553346110961720   0.375000000000000   1.0000000
B2   B   0.777196541360119   0.555264937346726   0.375000000000000   1.0000000
B2   B   0.610045387193378   0.055233878480892   0.375000000000000   1.0000000
B2   B   0.443830246219407   0.555226413901026   0.875000000000000   1.0000000
B2   B   0.944100084719376   0.055466681414483   0.375000000000000   1.0000000
B2   B   0.277130250579305   0.721890660964663   0.875000000000000   1.0000000
B2   B   0.110536085305236   0.221934709319281   0.875000000000000   1.0000000
B2   B   0.443830246219407   0.221937165651719   0.875000000000000   1.0000000
B2   B   0.610435967982431   0.721884516153489   0.875000000000000   1.0000000
B2   B   0.943779261085507   0.721894068193960   0.875000000000000   1.0000000
B2   B   0.777181886893990   0.221910703481450   0.875000000000000   1.0000000
B2   B   0.110039245022317   0.721686289177830   0.375000000000000   1.0000000
B2   B   0.443138689929692   0.721184859487846   0.375000000000000   1.0000000
B2   B   0.278902624513182   0.222724497742090   0.375000000000000   1.0000000
B2   B   0.776712388434565   0.721838131966495   0.375000000000000   1.0000000
B2   B   0.609849658419779   0.221969655804341   0.375000000000000   1.0000000
B2   B   0.944100084719376   0.221966736638228   0.375000000000000   1.0000000
B2   B   0.110530654391774   0.388596846389119   0.875000000000000   1.0000000
B2   B   0.277130250579305   0.888572922947980   0.875000000000000   1.0000000
B2   B   0.610438497596827   0.888552685998603   0.875000000000000   1.0000000
B2   B   0.443813761106995   0.388573547220158   0.875000000000000   1.0000000
B2   B   0.943792309091449   0.888569363221561   0.875000000000000   1.0000000
B2   B   0.110180887799314   0.888424969807178   0.375000000000000   1.0000000
B2   B   0.777179110152524   0.388572068951573   0.875000000000000   1.0000000
B2   B   0.443425236931685   0.888379285132517   0.375000000000000   1.0000000
B2   B   0.278902624513182   0.389511460104428   0.375000000000000   1.0000000
B2   B   0.276756855825331   0.555338287775443   0.375000000000000   1.0000000
B2   B   0.610606017285078   0.387102080417274   0.375000000000000   1.0000000
B2   B   0.777023203025301   0.888514608559725   0.375000000000000   1.0000000
B2   B   0.943679550360242   0.388371219369496   0.375000000000000   1.0000000
B2   B   0.110524023200786   0.555260143577777   0.875000000000000   1.0000000
B2   B   0.277124345568247   0.055245539503623   0.875000000000000   1.0000000
B2   B   0.777173708685007   0.555253521009177   0.875000000000000   1.0000000
B2   B   0.610438497596827   0.055219144931551   0.875000000000000   1.0000000
B2   B   0.943804245744784   0.055236989711990   0.875000000000000   1.0000000
B2   B   0.056335120151332   0.111534594569980   0.125118665706158   1.0000000
B2   B   0.556153503244340   0.611474726707404   0.125542099373016   1.0000000
B2   B   0.389672729877878   0.111552195151313   0.125315346573369   1.0000000
B2   B   0.889641586747568   0.611487460040465   0.125107966631893   1.0000000
B2   B   0.722984724315232   0.111468559756014   0.125001842723783   1.0000000
B2   B   0.056381770038971   0.778214166466134   0.624966217410809   1.0000000
B2   B   0.389661769269321   0.778149376956625   0.624849181682724   1.0000000
B2   B   0.222938240004254   0.278135786668797   0.624692927099705   1.0000000
B2   B   0.722991769227701   0.778226718230992   0.624826752993001   1.0000000
B2   B   0.556153503244340   0.278012109870277   0.624457900626987   1.0000000
B2   B   0.889582259691476   0.278079619946506   0.624957120570965   1.0000000
B2   B   0.222952371764366   0.778142852548852   0.125096317835351   1.0000000
B2   B   0.056335120151332   0.278133858914686   0.125118665706158   1.0000000
B2   B   0.389645066534870   0.278204401098757   0.125530026394657   1.0000000
B2   B   0.556230338713288   0.778136251155960   0.125163150746254   1.0000000
B2   B   0.889608991384482   0.778184866605810   0.125085002542650   1.0000000
B2   B   0.722991769227701   0.278098384330070   0.125173247006998   1.0000000
B2   B   0.056367094501198   0.944896446151648   0.624893446609953   1.0000000
B2   B   0.389661769269321   0.944845725646022   0.624849181682724   1.0000000
B2   B   0.222966481646287   0.444743334874370   0.624682080718695   1.0000000
B2   B   0.555999857948872   0.444666595641100   0.624674636674923   1.0000000
B2   B   0.722984724315232   0.944849497892539   0.624998157276222   1.0000000
B2   B   0.889608991384482   0.444757458112023   0.624914997457354   1.0000000
B2   B   0.056367094501198   0.444803981682868   0.125106553390040   1.0000000
B2   B   0.222961449405103   0.944864703667539   0.125148323939253   1.0000000
B2   B   0.556233895960340   0.944783614646853   0.125064411277734   1.0000000
B2   B   0.389645066534870   0.444773998769450   0.125530026394657   1.0000000
B2   B   0.889582259691476   0.944835973078305   0.125042879429029   1.0000000
B2   B   0.723030644764330   0.444820097218101   0.125532195193735   1.0000000
B2   B   0.222961449405103   0.611430079070899   0.624851676060746   1.0000000
B2   B   0.056335120151332   0.111534594569980   0.624881334293823   1.0000000
B2   B   0.556153503244340   0.611474726707404   0.624457900626987   1.0000000
B2   B   0.389672729877878   0.111552195151313   0.624684653426631   1.0000000
B2   B   0.889641586747568   0.611487460040465   0.624892033368108   1.0000000
B2   B   0.056381770038970   0.611500936906157   0.125033782589189   1.0000000
B2   B   0.722984724315232   0.111468559756014   0.624998157276222   1.0000000
B2   B   0.222966481646287   0.111556480105251   0.125317919281304   1.0000000
B2   B   0.389672729877878   0.611453868059909   0.125315346573369   1.0000000
B2   B   0.723030644764330   0.611543880879583   0.125532195193735   1.0000000
B2   B   0.556230338713288   0.111427420890677   0.125163150746254   1.0000000
B2   B   0.389672729877878   0.611453868059909   0.624684653426631   1.0000000
B2   B   0.889574951929052   0.111454142631195   0.125020111037997   1.0000000
B2   B   0.222952371764366   0.778142852548852   0.624903682164646   1.0000000
B2   B   0.056335120151332   0.278133858914686   0.624881334293823   1.0000000
B2   B   0.389645066534870   0.278204401098757   0.624469973605343   1.0000000
B2   B   0.556230338713288   0.778136251155960   0.624836849253761   1.0000000
B2   B   0.889608991384482   0.778184866605810   0.624914997457354   1.0000000
B2   B   0.722991769227701   0.278098384330070   0.624826752993001   1.0000000
B2   B   0.056381770038971   0.778214166466134   0.125033782589189   1.0000000
B2   B   0.389661769269321   0.778149376956625   0.125150818317276   1.0000000
B2   B   0.222938240004254   0.278135786668797   0.125307072900299   1.0000000
B2   B   0.722991769227701   0.778226718230992   0.125173247006998   1.0000000
B2   B   0.556153503244340   0.278012109870277   0.125542099373016   1.0000000
B2   B   0.889582259691476   0.278079619946506   0.125042879429029   1.0000000
B2   B   0.056367094501198   0.444803981682868   0.624893446609953   1.0000000
B2   B   0.222961449405103   0.944864703667539   0.624851676060746   1.0000000
B2   B   0.556233895960340   0.944783614646853   0.624935588722269   1.0000000
B2   B   0.389645066534870   0.444773998769450   0.624469973605343   1.0000000
B2   B   0.889582259691476   0.944835973078305   0.624957120570965   1.0000000
B2   B   0.056367094501198   0.944896446151648   0.125106553390040   1.0000000
B2   B   0.723030644764330   0.444820097218101   0.624467804806269   1.0000000
B2   B   0.389661769269321   0.944845725646022   0.125150818317276   1.0000000
B2   B   0.222966481646287   0.444743334874370   0.125317919281304   1.0000000
B2   B   0.222961449405103   0.611430079070899   0.125148323939253   1.0000000
B2   B   0.555999857948872   0.444666595641100   0.125325363325067   1.0000000
B2   B   0.722984724315232   0.944849497892539   0.125001842723783   1.0000000
B2   B   0.889608991384482   0.444757458112023   0.125085002542650   1.0000000
B2   B   0.056381770038971   0.611500936906157   0.624966217410809   1.0000000
B2   B   0.222966481646287   0.111556480105251   0.624682080718695   1.0000000
B2   B   0.723030644764330   0.611543880879583   0.624467804806269   1.0000000
B2   B   0.556230338713288   0.111427420890677   0.624836849253761   1.0000000
B2   B   0.889574951929052   0.111454142631195   0.624979888962006   1.0000000


