data_1
_audit_creation_method   'vasp2cif'
_cell_length_a    17.52789999999977
_cell_length_b    17.52789999999977
_cell_length_c    15.0
_cell_angle_alpha    90.0
_cell_angle_beta    90.0
_cell_angle_gamma    119.99999999999916

_symmetry_space_group_name_H-M    'P 1'
loop_
_atom_site_label
_atom_site_type_symbol
_atom_site_fract_x
_atom_site_fract_y
_atom_site_fract_z
_atom_site_occupancy
Al2   Al   0.486955022650971   0.513046379266027   0.111085587685038   1.0000000
B2   B   0.905867086696853   0.952696811974529   0.111012911516720   1.0000000
B2   B   0.904923889994989   0.095078131201008   0.111035217054603   1.0000000
B2   B   0.904708325889311   0.237888738948928   0.111036581301781   1.0000000
B2   B   0.905140328470017   0.380852972134207   0.111015686979729   1.0000000
B2   B   0.905928962653679   0.523849962870001   0.111061332513630   1.0000000
B2   B   0.906363624716267   0.666855071069967   0.111079138297668   1.0000000
B2   B   0.906115701108129   0.809648467807242   0.111049347175026   1.0000000
B2   B   0.048202422550889   0.951799598645114   0.111006340546125   1.0000000
B2   B   0.047305209221475   0.094134934499144   0.111012911516720   1.0000000
B2   B   0.046985950000563   0.237261489202471   0.110998563525066   1.0000000
B2   B   0.047212440725157   0.380525148093762   0.111024025476345   1.0000000
B2   B   0.048001812085711   0.523614759699683   0.111030995162023   1.0000000
B2   B   0.048644119076969   0.666459517498421   0.111066513845726   1.0000000
B2   B   0.048602970697349   0.809184096008042   0.111050086613399   1.0000000
B2   B   0.190817925187961   0.951399050498654   0.111050086613399   1.0000000
B2   B   0.190353553388762   0.093886320087867   0.111049347175026   1.0000000
B2   B   0.188415372208252   0.235391849532650   0.110996946123550   1.0000000
B2   B   0.188854809106358   0.379732819298882   0.110988113024512   1.0000000
B2   B   0.189970991841502   0.523259338419905   0.111054052877232   1.0000000
B2   B   0.191175027788203   0.666188009052710   0.111061242466278   1.0000000
B2   B   0.191149826884938   0.808852194311065   0.111005850066391   1.0000000
B2   B   0.333542503698577   0.951357902119034   0.111066513845726   1.0000000
B2   B   0.333146950127032   0.093638396479729   0.111079138297668   1.0000000
B2   B   0.332562545668887   0.235625580464175   0.111014708698798   1.0000000
B2   B   0.327854709327722   0.377285607195892   0.110984414271948   1.0000000
B2   B   0.331655077294625   0.522342626564938   0.111046382243721   1.0000000
B2   B   0.334009280674354   0.665992740522644   0.111092699159619   1.0000000
B2   B   0.333814012144288   0.808826993407799   0.111061242466278   1.0000000
B2   B   0.476387261497316   0.952000209110292   0.111030995162023   1.0000000
B2   B   0.476152058326998   0.094073058542318   0.111061332513630   1.0000000
B2   B   0.475863637479164   0.235672302031794   0.111025953074854   1.0000000
B2   B   0.474051314805077   0.373388425080832   0.110994363261599   1.0000000
B2   B   0.477659394632058   0.668346943902374   0.111046382243721   1.0000000
B2   B   0.476742682777093   0.810031029354502   0.111054052877232   1.0000000
B2   B   0.619476873102240   0.952789580470847   0.111024025476345   1.0000000
B2   B   0.619149049061798   0.094861692725979   0.111015686979729   1.0000000
B2   B   0.619298712852228   0.237109491996288   0.110994932436671   1.0000000
B2   B   0.620410937072282   0.379591084123721   0.110981884762017   1.0000000
B2   B   0.626613596115172   0.525950706391922   0.110994363261599   1.0000000
B2   B   0.622716414000112   0.672147311869276   0.110984414271948   1.0000000
B2   B   0.620269201897122   0.811147212089645   0.110988113024512   1.0000000
B2   B   0.762740531993532   0.953016071195441   0.110998563525066   1.0000000
B2   B   0.762113282247075   0.095293695306685   0.111036581301781   1.0000000
B2   B   0.762147730259501   0.237854290936503   0.111039434141099   1.0000000
B2   B   0.762892529199716   0.380703308343774   0.110994932436671   1.0000000
B2   B   0.764329719164210   0.524138383717834   0.111025953074854   1.0000000
B2   B   0.764376440731830   0.667439475528111   0.111014708698798   1.0000000
B2   B   0.764610171663354   0.811586648987751   0.110996946123550   1.0000000
N2   N   0.953061077359720   0.904516193326774   0.111001671006100   1.0000000
N2   N   0.952623265435266   0.047378136482740   0.111003278068672   1.0000000
N2   N   0.952140714103850   0.190112237865090   0.111011226135665   1.0000000
N2   N   0.952179538454520   0.333039429009080   0.111011346515562   1.0000000
N2   N   0.952693240524744   0.475999243004333   0.111010455135468   1.0000000
N2   N   0.953105746497425   0.618846242874092   0.111071636887535   1.0000000
N2   N   0.953183951452233   0.761628347491612   0.111053835192692   1.0000000
N2   N   0.095779956298336   0.904221445619662   0.111006726363085   1.0000000
N2   N   0.095485208591225   0.046940324558286   0.111001671006100   1.0000000
N2   N   0.094234626310963   0.188963007604374   0.110984897097826   1.0000000
N2   N   0.094280467567289   0.332386988883864   0.110980819255386   1.0000000
N2   N   0.094969098865854   0.475669102290749   0.111013476592235   1.0000000
N2   N   0.095839845655324   0.618697174066360   0.111034735428944   1.0000000
N2   N   0.095922085535664   0.761479878296122   0.111012415389676   1.0000000
N2   N   0.238521523621884   0.904079316382335   0.111012415389676   1.0000000
N2   N   0.238373054426394   0.046817450465772   0.111053835192692   1.0000000
N2   N   0.238124529798240   0.189472439672850   0.111011471040416   1.0000000
N2   N   0.234767462342051   0.329813722927155   0.110956274359784   1.0000000
N2   N   0.236734230666462   0.475008280618541   0.111014137679137   1.0000000
N2   N   0.238631354241841   0.618435607429205   0.111059785984721   1.0000000
N2   N   0.238681063417432   0.761320338500573   0.111019688538382   1.0000000
N2   N   0.381304227851639   0.904161556262675   0.111034735428944   1.0000000
N2   N   0.381155159043908   0.046895655420580   0.111071636887535   1.0000000
N2   N   0.381236745462237   0.189713749145262   0.111029870396077   1.0000000
N2   N   0.381435436460884   0.333176978174879   0.110964737206683   1.0000000
N2   N   0.373392964420724   0.469627615180503   0.111003074677487   1.0000000
N2   N   0.381860157509058   0.618141244408940   0.111057598706224   1.0000000
N2   N   0.381565794488793   0.761370047676165   0.111059785984721   1.0000000
N2   N   0.524332299626247   0.905032303052143   0.111013476592235   1.0000000
N2   N   0.524002158912663   0.047308161393262   0.111010455135468   1.0000000
N2   N   0.524048238529780   0.189833581678096   0.111011750225891   1.0000000
N2   N   0.524751416918139   0.332847708790794   0.110978308198492   1.0000000
N2   N   0.530373786736494   0.626608437497275   0.111003074677487   1.0000000
N2   N   0.524993121298455   0.763267171251545   0.111014137679137   1.0000000
N2   N   0.667614413033132   0.905720934350710   0.110980819255386   1.0000000
N2   N   0.666961972907917   0.047821863463485   0.111011346515562   1.0000000
N2   N   0.666806832173667   0.190272611498891   0.111004392865940   1.0000000
N2   N   0.667079417279940   0.332921984637057   0.110957842389784   1.0000000
N2   N   0.667153693126203   0.475249984998858   0.110978308198492   1.0000000
N2   N   0.666824423742118   0.618565965457113   0.110964737206683   1.0000000
N2   N   0.670187678989841   0.765233939575955   0.110956274359784   1.0000000
N2   N   0.811038394313625   0.905766775607035   0.110984897097826   1.0000000
N2   N   0.809889164052909   0.047860687814156   0.111011226135665   1.0000000
N2   N   0.809557899431380   0.190443502486619   0.111030482524965   1.0000000
N2   N   0.809728790419107   0.333194569743331   0.111004392865940   1.0000000
N2   N   0.810167820239902   0.475953163387217   0.111011750225891   1.0000000
N2   N   0.810287652772737   0.618764656455762   0.111029870396077   1.0000000
N2   N   0.810528962245149   0.761876872119765   0.111011471040416   1.0000000


