data_1
_audit_creation_method   'vasp2cif'
_cell_length_a    17.52789999999977
_cell_length_b    17.52789999999977
_cell_length_c    15.0
_cell_angle_alpha    90.0
_cell_angle_beta    90.0
_cell_angle_gamma    119.99999999999916

_symmetry_space_group_name_H-M    'P 1'
loop_
_atom_site_label
_atom_site_type_symbol
_atom_site_fract_x
_atom_site_fract_y
_atom_site_fract_z
_atom_site_occupancy
B2   B   0.904992966903769   0.952539433383795   0.111015001717199   1.0000000
B2   B   0.904768203603110   0.095233575331891   0.111039622005284   1.0000000
B2   B   0.904764209988880   0.238087728210457   0.111040991354560   1.0000000
B2   B   0.904989070329635   0.381024185211561   0.111015732490522   1.0000000
B2   B   0.905696588687263   0.524045259376659   0.111033918641425   1.0000000
B2   B   0.906007273583328   0.667282300656512   0.111063284190315   1.0000000
B2   B   0.905697365951750   0.810215870326312   0.111041634408743   1.0000000
B2   B   0.047696517487477   0.952305214134523   0.111017210354014   1.0000000
B2   B   0.047462288490205   0.095008726423232   0.111015000203196   1.0000000
B2   B   0.047443731732383   0.238000395090204   0.111008551929966   1.0000000
B2   B   0.047466386624302   0.381024213422335   0.111023655412100   1.0000000
B2   B   0.047696626909421   0.523969717419832   0.111017908627851   1.0000000
B2   B   0.048037202992344   0.666918608738873   0.111036005523176   1.0000000
B2   B   0.048035903182438   0.809699970636230   0.111013456050395   1.0000000
B2   B   0.190301761063766   0.951965795534562   0.111013453165392   1.0000000
B2   B   0.189785888319689   0.094304372427248   0.111041630804742   1.0000000
B2   B   0.189933421246254   0.237383270095837   0.111018936420486   1.0000000
B2   B   0.189936093164682   0.381136533975142   0.111000175864920   1.0000000
B2   B   0.189792968699515   0.524050899591977   0.111035003987204   1.0000000
B2   B   0.190295328593668   0.666906246011460   0.111041247339580   1.0000000
B2   B   0.190471622630939   0.809529977772057   0.111008887362323   1.0000000
B2   B   0.333083008760129   0.951964354748657   0.111036007644182   1.0000000
B2   B   0.332719492144490   0.093994407020673   0.111063283057312   1.0000000
B2   B   0.331572975253269   0.235751775521583   0.111031495753625   1.0000000
B2   B   0.332430246035693   0.380511125962223   0.111021507916401   1.0000000
B2   B   0.331582517584603   0.524401410860082   0.111006079180571   1.0000000
B2   B   0.332717977925969   0.667283951008028   0.111051486368922   1.0000000
B2   B   0.333095404429539   0.809706412662332   0.111041248868576   1.0000000
B2   B   0.476031897746167   0.952305038023581   0.111017915524847   1.0000000
B2   B   0.475956423523340   0.094304768248734   0.111033926929423   1.0000000
B2   B   0.475603272836740   0.235752347007731   0.111047734288114   1.0000000
B2   B   0.473055993422473   0.374707187891316   0.111039015976088   1.0000000
B2   B   0.473063919778262   0.526937623261738   0.111050107212910   1.0000000
B2   B   0.475600322226922   0.668419350465396   0.111006079607572   1.0000000
B2   B   0.475950867745020   0.810209126176480   0.111035011618206   1.0000000
B2   B   0.618977545927664   0.952535450180696   0.111023659160100   1.0000000
B2   B   0.618977518938441   0.095012530753364   0.111015735568522   1.0000000
B2   B   0.618868465345407   0.237377258950495   0.111020359484171   1.0000000
B2   B   0.619503188766586   0.380498563400415   0.111021257037080   1.0000000
B2   B   0.625294676794683   0.526945782439530   0.111039014344085   1.0000000
B2   B   0.619490503730780   0.667571326219309   0.111021505270403   1.0000000
B2   B   0.618865133849862   0.810065682383311   0.111000177038921   1.0000000
B2   B   0.762001330300790   0.952558052649618   0.111008559263967   1.0000000
B2   B   0.761914024150545   0.095237534050124   0.111040993697561   1.0000000
B2   B   0.762001415639181   0.238000215833823   0.111047520617648   1.0000000
B2   B   0.762624301904510   0.381133210704590   0.111020354365172   1.0000000
B2   B   0.764249308138270   0.524398562746260   0.111047730981120   1.0000000
B2   B   0.764250046233416   0.668428783728726   0.111031499879626   1.0000000
B2   B   0.762618386874162   0.810068234626745   0.111018944621485   1.0000000
C2   C   0.523803815883017   0.476198041805983   0.111086431529663   1.0000000
N2   N   0.952613162172729   0.904986398118288   0.111009957051348   1.0000000
N2   N   0.952379599997699   0.047622129841301   0.111007168639578   1.0000000
N2   N   0.952415596630000   0.190486957607358   0.111016549560146   1.0000000
N2   N   0.952377402952256   0.333321281056310   0.111012667792330   1.0000000
N2   N   0.952612519522573   0.476194948701698   0.110988945077128   1.0000000
N2   N   0.952763473289727   0.619193375924178   0.111028799108822   1.0000000
N2   N   0.952763600050550   0.762134521982061   0.111023105914817   1.0000000
N2   N   0.095270676057920   0.904731051416080   0.110988144358115   1.0000000
N2   N   0.095015343062707   0.047388557951268   0.111009969462349   1.0000000
N2   N   0.095258747993523   0.190454879284637   0.110992242585934   1.0000000
N2   N   0.095259408653831   0.333371198146762   0.110992060312422   1.0000000
N2   N   0.095018839208162   0.476200560393281   0.111012359494728   1.0000000
N2   N   0.095266112999128   0.619113707409298   0.111015591767098   1.0000000
N2   N   0.095355459126595   0.761968106035700   0.110999629992492   1.0000000
N2   N   0.238033515459302   0.904646129593402   0.110999628241494   1.0000000
N2   N   0.237867249377936   0.047238115509453   0.111023103456815   1.0000000
N2   N   0.237255765207645   0.189546372083614   0.111017612605695   1.0000000
N2   N   0.238329571496502   0.333456976215213   0.110993940892848   1.0000000
N2   N   0.237263535974015   0.476287727489688   0.110996895398802   1.0000000
N2   N   0.237864905602510   0.619197168939329   0.111030361847165   1.0000000
N2   N   0.238034590438339   0.761967076089661   0.111009402240811   1.0000000
N2   N   0.380887924917701   0.904735527631870   0.111015594557094   1.0000000
N2   N   0.380808296131823   0.047238006563277   0.111028808266823   1.0000000
N2   N   0.380569513759773   0.189710563698857   0.111039050391460   1.0000000
N2   N   0.379501579193880   0.331293803346597   0.111007329707528   1.0000000
N2   N   0.379511786671816   0.476792268412637   0.111002581698368   1.0000000
N2   N   0.380571661841176   0.619430131642820   0.111004316767178   1.0000000
N2   N   0.380804633461672   0.762137084479488   0.111030365375166   1.0000000
N2   N   0.523801232734719   0.904983223663838   0.111012367155722   1.0000000
N2   N   0.523806785986300   0.047388942065426   0.110988950533130   1.0000000
N2   N   0.523716243461016   0.189545373388065   0.111023309552589   1.0000000
N2   N   0.523210960584778   0.331297008034181   0.111009915799140   1.0000000
N2   N   0.523209217424360   0.620489729091187   0.111002580301370   1.0000000
N2   N   0.523713916259314   0.762738475487986   0.110996903162803   1.0000000
N2   N   0.666630519891238   0.904742403747164   0.110992061387424   1.0000000
N2   N   0.666680498713692   0.047624358819742   0.111012671157333   1.0000000
N2   N   0.666631116835655   0.190456744020871   0.111017024635544   1.0000000
N2   N   0.666552103264100   0.333449513165898   0.110997613905598   1.0000000
N2   N   0.668704784361825   0.476790791137218   0.111009915244135   1.0000000
N2   N   0.668708075829400   0.620500145535123   0.111007323255530   1.0000000
N2   N   0.666544634401792   0.761672038981492   0.110993940267848   1.0000000
N2   N   0.809546788827362   0.904742959256477   0.110992253786937   1.0000000
N2   N   0.809514810371643   0.047586194796001   0.111016555823140   1.0000000
N2   N   0.809514969076967   0.190486728067033   0.111027482111192   1.0000000
N2   N   0.809544805805125   0.333370540010348   0.111017019681548   1.0000000
N2   N   0.810455948744937   0.476285442667980   0.111023298670592   1.0000000
N2   N   0.810291194312138   0.619432263205227   0.111039050071460   1.0000000
N2   N   0.810455386076389   0.762745962488350   0.111017630274691   1.0000000


