data_1
_audit_creation_method   'vasp2cif'
_cell_length_a    17.52789999999977
_cell_length_b    17.52789999999977
_cell_length_c    15.0
_cell_angle_alpha    90.0
_cell_angle_beta    90.0
_cell_angle_gamma    119.99999999999916

_symmetry_space_group_name_H-M    'P 1'
loop_
_atom_site_label
_atom_site_type_symbol
_atom_site_fract_x
_atom_site_fract_y
_atom_site_fract_z
_atom_site_occupancy
As2   As   0.411170985624532   0.473756134017354   0.111283453211196   1.0000000
B2   B   0.908978151357741   0.955361411313075   0.110386196889604   1.0000000
B2   B   0.908148128298751   0.098306190119353   0.110518052700682   1.0000000
B2   B   0.907442072669361   0.240914336428636   0.110663376634371   1.0000000
B2   B   0.905802206420176   0.382680542305440   0.110586620362999   1.0000000
B2   B   0.903230946123430   0.524045696374236   0.110656354938873   1.0000000
B2   B   0.905438764215319   0.666423880813638   0.110772264623323   1.0000000
B2   B   0.908331027472433   0.811297825955481   0.110554825054067   1.0000000
B2   B   0.048526698218111   0.949969318352263   0.110496261349180   1.0000000
B2   B   0.048390280534358   0.093431092997541   0.110557993171102   1.0000000
B2   B   0.050112376395165   0.238888596302027   0.110609791289653   1.0000000
B2   B   0.050557138510647   0.382158229616699   0.110523542648575   1.0000000
B2   B   0.049119732196066   0.523797973104135   0.110468159366670   1.0000000
B2   B   0.048531043376554   0.665269250757211   0.110584941390758   1.0000000
B2   B   0.048536226963116   0.807318191735560   0.110575200900415   1.0000000
B2   B   0.190398525597714   0.947490803793875   0.110643218484011   1.0000000
B2   B   0.188148057009203   0.087585567834708   0.110565586383570   1.0000000
B2   B   0.187703092899808   0.230408193367422   0.110632211174319   1.0000000
B2   B   0.194431228306793   0.380417420372063   0.110687851594930   1.0000000
B2   B   0.194661889679440   0.523993343690288   0.110590177457561   1.0000000
B2   B   0.192918128007471   0.665655763065654   0.110514192115298   1.0000000
B2   B   0.191649052441489   0.806757064439548   0.110613080309859   1.0000000
B2   B   0.334402139432861   0.948574941896439   0.110753859775908   1.0000000
B2   B   0.332286279767115   0.086666261230044   0.110653838223157   1.0000000
B2   B   0.327459561707684   0.220719532519195   0.110712145836478   1.0000000
B2   B   0.325426766325122   0.355428580747299   0.111133165239829   1.0000000
B2   B   0.340753719072142   0.531766135005856   0.111185238356456   1.0000000
B2   B   0.338019401785587   0.669678677457921   0.110810857061481   1.0000000
B2   B   0.335989430091252   0.809095936071966   0.110614799039669   1.0000000
B2   B   0.478957779564843   0.952600313491435   0.110688046947957   1.0000000
B2   B   0.477339361958894   0.092768598443827   0.110704961653095   1.0000000
B2   B   0.474430785129578   0.231704138615766   0.110802389756273   1.0000000
B2   B   0.466871965179224   0.366964480901494   0.111349562834718   1.0000000
B2   B   0.484598910037941   0.671346486354882   0.111339630803298   1.0000000
B2   B   0.480901968476025   0.812044180861685   0.110809622802878   1.0000000
B2   B   0.623142892227651   0.956950389726395   0.110620733534252   1.0000000
B2   B   0.621606478214175   0.097917714648503   0.110591709362423   1.0000000
B2   B   0.619531431747232   0.239753547693843   0.110697090367425   1.0000000
B2   B   0.614903837543290   0.382618293426864   0.111112263492782   1.0000000
B2   B   0.612486742420668   0.536908318349409   0.111461998973419   1.0000000
B2   B   0.634195461778748   0.683199265355699   0.111288107409737   1.0000000
B2   B   0.625654143003692   0.817362624160198   0.110882453785017   1.0000000
B2   B   0.766889000906687   0.957902364765101   0.110480623160052   1.0000000
B2   B   0.765307839593732   0.099370539400080   0.110561104961026   1.0000000
B2   B   0.763639013966260   0.241131283718727   0.110615738094756   1.0000000
B2   B   0.760682005730743   0.382968742013616   0.110743561265581   1.0000000
B2   B   0.756346071134580   0.525263146551006   0.111003354305896   1.0000000
B2   B   0.767627837168448   0.672349805229660   0.110951437152082   1.0000000
B2   B   0.770184205046016   0.817677862386204   0.110651594709330   1.0000000
N2   N   0.954689020632164   0.905602686963645   0.110387724748474   1.0000000
N2   N   0.954724792283332   0.049423253300533   0.110439494927528   1.0000000
N2   N   0.955291647681385   0.193222150964417   0.110598593316019   1.0000000
N2   N   0.954909728366839   0.335812057883164   0.110573538925092   1.0000000
N2   N   0.952920642053335   0.477404556480484   0.110507053738674   1.0000000
N2   N   0.952886174853675   0.618780413605487   0.110655282629805   1.0000000
N2   N   0.953724857945959   0.761437544053050   0.110586175341461   1.0000000
N2   N   0.095686578698089   0.901798919690948   0.110515821363018   1.0000000
N2   N   0.094413368080711   0.043928348654526   0.110528513145380   1.0000000
N2   N   0.094521557073724   0.187720234405496   0.110577267493228   1.0000000
N2   N   0.098874168675559   0.334506167187057   0.110531025546886   1.0000000
N2   N   0.098605389527550   0.477126027219042   0.110416184089710   1.0000000
N2   N   0.097227760511453   0.618525351625055   0.110461484340854   1.0000000
N2   N   0.096377526122562   0.759937147884334   0.110565526917879   1.0000000
N2   N   0.239118069119481   0.901225008872512   0.110676047429635   1.0000000
N2   N   0.237268339555311   0.041457741572668   0.110598368333372   1.0000000
N2   N   0.233845456443437   0.180836377702015   0.110509925699817   1.0000000
N2   N   0.234999312486211   0.325046385944558   0.110725349634288   1.0000000
N2   N   0.244478900814315   0.477075161474086   0.110783486286229   1.0000000
N2   N   0.242213318753978   0.619363792140522   0.110562392790864   1.0000000
N2   N   0.240471313116592   0.760481127260393   0.110513615561888   1.0000000
N2   N   0.383574649887915   0.903471544535482   0.110673036210551   1.0000000
N2   N   0.382035220522989   0.042628918008543   0.110726175058722   1.0000000
N2   N   0.379410742611097   0.179780871359565   0.110591639570809   1.0000000
N2   N   0.373604902737233   0.311740340058871   0.111129333159155   1.0000000
N2   N   0.388395987167526   0.625146358179368   0.111212034894671   1.0000000
N2   N   0.385343657849729   0.763886410627535   0.110661595168508   1.0000000
N2   N   0.527904419179488   0.906948465548499   0.110650439078510   1.0000000
N2   N   0.526390764825469   0.047558785979276   0.110631490476931   1.0000000
N2   N   0.524393397870271   0.187772801151513   0.110665512205760   1.0000000
N2   N   0.519673617632780   0.326833879652720   0.111108244155195   1.0000000
N2   N   0.526339003246203   0.546446109816265   0.111833637008886   1.0000000
N2   N   0.542044826154288   0.633478072790761   0.111621325283918   1.0000000
N2   N   0.530523638989690   0.766505882744619   0.111008540354562   1.0000000
N2   N   0.671990222793459   0.911340550086510   0.110577591778436   1.0000000
N2   N   0.670195608925266   0.051698775478488   0.110536083138851   1.0000000
N2   N   0.668390234428661   0.193250026356174   0.110553871152156   1.0000000
N2   N   0.665037941599827   0.335898402744608   0.110811006254419   1.0000000
N2   N   0.657428932389561   0.479810453886449   0.111237497207332   1.0000000
N2   N   0.674584092868502   0.629886763219564   0.111236330821522   1.0000000
N2   N   0.676993556272236   0.774705938062528   0.110931973302013   1.0000000
N2   N   0.815349227030936   0.911135698551602   0.110350735986721   1.0000000
N2   N   0.813463712751740   0.052341569198266   0.110444689823290   1.0000000
N2   N   0.812241173463958   0.194227841550163   0.110617097307431   1.0000000
N2   N   0.810090739798427   0.336153564885905   0.110588184851802   1.0000000
N2   N   0.806442591947098   0.477960019896640   0.110761899792939   1.0000000
N2   N   0.810081752551673   0.620506215846199   0.110917661425677   1.0000000
N2   N   0.814617662291250   0.766918296230354   0.110654391523109   1.0000000


