data_1
_audit_creation_method   'vasp2cif'
_cell_length_a    14.93631414619966
_cell_length_b    14.936314146199727
_cell_length_c    13.341276283792837
_cell_angle_alpha    90.0
_cell_angle_beta    90.0
_cell_angle_gamma    119.99999999999984

_symmetry_space_group_name_H-M    'P 1'
loop_
_atom_site_label
_atom_site_type_symbol
_atom_site_fract_x
_atom_site_fract_y
_atom_site_fract_z
_atom_site_occupancy
Ga2   Ga   0.444444444444443   0.388888888888886   0.375000000000000   1.0000000
N2   N   0.111091779529883   0.055538935796301   0.124495045203458   1.0000000
N2   N   0.611133276565436   0.555588967080072   0.124000733217379   1.0000000
N2   N   0.444447156266407   0.055538935796301   0.124495045203458   1.0000000
N2   N   0.944443908116897   0.555556389200966   0.125027707573493   1.0000000
N2   N   0.777777777777779   0.055555555555557   0.125086197012085   1.0000000
N2   N   0.111111111111114   0.722222222222221   0.624916660726348   1.0000000
N2   N   0.444447156266407   0.722241553803462   0.625504954796537   1.0000000
N2   N   0.277744366253246   0.222200056767904   0.625999266782639   1.0000000
N2   N   0.777794397537070   0.722241553803462   0.625504954796537   1.0000000
N2   N   0.611120319164206   0.222213014169105   0.625702957160034   1.0000000
N2   N   0.944435815731984   0.222220185701552   0.625067771423691   1.0000000
N2   N   0.277776944132345   0.722220852249246   0.125027707573493   1.0000000
N2   N   0.111092695004892   0.222213014169105   0.124297042839997   1.0000000
N2   N   0.444455690514628   0.222200056767904   0.124000733217379   1.0000000
N2   N   0.611120319164206   0.722240638328448   0.124297042839997   1.0000000
N2   N   0.944443908116897   0.722220852249246   0.125027707573493   1.0000000
N2   N   0.777784369969532   0.222220185701552   0.124932228576285   1.0000000
N2   N   0.111112481084096   0.888889425216431   0.624972292426485   1.0000000
N2   N   0.444452263815208   0.888892798574277   0.624947362918306   1.0000000
N2   N   0.277744366253246   0.388877642818700   0.625999266782639   1.0000000
N2   N   0.611133276565436   0.388877642818700   0.625999266782639   1.0000000
N2   N   0.777784369969532   0.888897517601345   0.625067771423691   1.0000000
N2   N   0.944440534759052   0.388881069518121   0.624947362918306   1.0000000
N2   N   0.111091779529883   0.388886177066922   0.124495045203458   1.0000000
N2   N   0.277776944132345   0.888889425216431   0.125027707573493   1.0000000
N2   N   0.611113147631795   0.888897517601345   0.124932228576285   1.0000000
N2   N   0.444444444444443   0.388888888888886   0.127137508632920   1.0000000
N2   N   0.944440534759052   0.888892798574277   0.125052637081714   1.0000000
N2   N   0.777794397537070   0.388886177066922   0.124495045203458   1.0000000
N2   N   0.277773120695531   0.555560212637832   0.625707514672939   1.0000000
N2   N   0.111091779529883   0.055538935796301   0.625504954796537   1.0000000
N2   N   0.611133276565436   0.555588967080072   0.625999266782639   1.0000000
N2   N   0.444447156266407   0.055538935796301   0.625504954796537   1.0000000
N2   N   0.944443908116897   0.555556389200966   0.624972292426485   1.0000000
N2   N   0.111112481084096   0.555556389200966   0.125027707573493   1.0000000
N2   N   0.777777777777779   0.055555555555557   0.624913802987886   1.0000000
N2   N   0.277773120695531   0.055546241391046   0.124292485327089   1.0000000
N2   N   0.444455690514628   0.555588967080072   0.124000733217379   1.0000000
N2   N   0.777787091942275   0.555560212637832   0.124292485327089   1.0000000
N2   N   0.611113147631795   0.055548963363789   0.124932228576285   1.0000000
N2   N   0.444455690514628   0.555588967080072   0.625999266782639   1.0000000
N2   N   0.944435815731984   0.055548963363789   0.124932228576285   1.0000000
N2   N   0.277776944132345   0.722220852249246   0.624972292426485   1.0000000
N2   N   0.111092695004892   0.222213014169105   0.625702957160034   1.0000000
N2   N   0.444455690514628   0.222200056767904   0.625999266782639   1.0000000
N2   N   0.611120319164206   0.722240638328448   0.625702957160034   1.0000000
N2   N   0.944443908116897   0.722220852249246   0.624972292426485   1.0000000
N2   N   0.777784369969532   0.222220185701552   0.625067771423691   1.0000000
N2   N   0.111111111111114   0.722222222222221   0.125083339273664   1.0000000
N2   N   0.444447156266407   0.722241553803462   0.124495045203458   1.0000000
N2   N   0.277744366253246   0.222200056767904   0.124000733217379   1.0000000
N2   N   0.777794397537070   0.722241553803462   0.124495045203458   1.0000000
N2   N   0.611120319164206   0.222213014169105   0.124297042839997   1.0000000
N2   N   0.944435815731984   0.222220185701552   0.124932228576285   1.0000000
N2   N   0.111091779529883   0.388886177066922   0.625504954796537   1.0000000
N2   N   0.277776944132345   0.888889425216431   0.624972292426485   1.0000000
N2   N   0.611113147631795   0.888897517601345   0.625067771423691   1.0000000
N2   N   0.444444444444443   0.388888888888886   0.622862491367073   1.0000000
N2   N   0.944440534759052   0.888892798574277   0.624947362918306   1.0000000
N2   N   0.111112481084096   0.888889425216431   0.125027707573493   1.0000000
N2   N   0.777794397537070   0.388886177066922   0.625504954796537   1.0000000
N2   N   0.444452263815208   0.888892798574277   0.125052637081714   1.0000000
N2   N   0.277744366253246   0.388877642818700   0.124000733217379   1.0000000
N2   N   0.277773120695531   0.555560212637832   0.124292485327089   1.0000000
N2   N   0.611133276565436   0.388877642818700   0.124000733217379   1.0000000
N2   N   0.777784369969532   0.888897517601345   0.124932228576285   1.0000000
N2   N   0.944440534759052   0.388881069518121   0.125052637081714   1.0000000
N2   N   0.111112481084096   0.555556389200966   0.624972292426485   1.0000000
N2   N   0.277773120695531   0.055546241391046   0.625707514672939   1.0000000
N2   N   0.777787091942275   0.555560212637832   0.625707514672939   1.0000000
N2   N   0.611113147631795   0.055548963363789   0.625067771423691   1.0000000
N2   N   0.944435815731984   0.055548963363789   0.625067771423691   1.0000000
N2   N   0.054447009514879   0.110367855960005   0.375000000000000   1.0000000
N2   N   0.556116985393773   0.612233970787512   0.375000000000000   1.0000000
N2   N   0.387718997267763   0.104629009427191   0.375000000000000   1.0000000
N2   N   0.891136384595212   0.612234858964289   0.375000000000000   1.0000000
N2   N   0.722418999938376   0.110914333394931   0.375000000000000   1.0000000
N2   N   0.055556297831965   0.777777035501372   0.875000000000000   1.0000000
N2   N   0.388891709695124   0.777779557358150   0.875000000000000   1.0000000
N2   N   0.222221811179410   0.277777572256358   0.875000000000000   1.0000000
N2   N   0.722225994307223   0.777777455234763   0.875000000000000   1.0000000
N2   N   0.555555761076972   0.277777572256358   0.875000000000000   1.0000000
N2   N   0.888888882214765   0.277777764429584   0.875000000000000   1.0000000
N2   N   0.221792335352812   0.777562834343093   0.375000000000000   1.0000000
N2   N   0.054447009514879   0.277412486888200   0.375000000000000   1.0000000
N2   N   0.377859538524611   0.255719077049181   0.375000000000000   1.0000000
N2   N   0.555920846445161   0.778886323818460   0.375000000000000   1.0000000
N2   N   0.890704071272340   0.779243762148803   0.375000000000000   1.0000000
N2   N   0.722965477373322   0.277412486888200   0.375000000000000   1.0000000
N2   N   0.055553775975192   0.944445485670303   0.875000000000000   1.0000000
N2   N   0.388891709695124   0.944445485670303   0.875000000000000   1.0000000
N2   N   0.222217442332555   0.444444007115425   0.875000000000000   1.0000000
N2   N   0.555542139414956   0.444437736374142   0.875000000000000   1.0000000
N2   N   0.722223612197239   0.944447224394523   0.875000000000000   1.0000000
N2   N   0.888887847663026   0.444441623638205   0.875000000000000   1.0000000
N2   N   0.054089571184556   0.444793642456909   0.375000000000000   1.0000000
N2   N   0.221098474369045   0.942196948738117   0.375000000000000   1.0000000
N2   N   0.555850454501208   0.944591893917236   0.375000000000000   1.0000000
N2   N   0.377859538524611   0.455473794808718   0.375000000000000   1.0000000
N2   N   0.888741439416092   0.944591893917236   0.375000000000000   1.0000000
N2   N   0.728704323906141   0.445614336065566   0.375000000000000   1.0000000
N2   N   0.222219976951895   0.611113356381411   0.875000000000000   1.0000000
N2   N   0.055555878098594   0.111107339026090   0.875000000000000   1.0000000
N2   N   0.555555761076972   0.611111522153955   0.875000000000000   1.0000000
N2   N   0.388889326217904   0.111106768550460   0.875000000000000   1.0000000
N2   N   0.888893379429540   0.611113356381411   0.875000000000000   1.0000000
N2   N   0.055770498990260   0.611540997980499   0.375000000000000   1.0000000
N2   N   0.722223612197239   0.111109721136071   0.875000000000000   1.0000000
N2   N   0.216910012159412   0.104629009427191   0.375000000000000   1.0000000
N2   N   0.387718997267762   0.616423321173883   0.375000000000000   1.0000000
N2   N   0.728704323906141   0.616423321173883   0.375000000000000   1.0000000
N2   N   0.555920846445161   0.110367855960005   0.375000000000000   1.0000000
N2   N   0.388889326217904   0.611115891000770   0.875000000000000   1.0000000
N2   N   0.888495333456519   0.110914333394931   0.375000000000000   1.0000000
N2   N   0.222220737669408   0.777777035501372   0.875000000000000   1.0000000
N2   N   0.055555878098594   0.277781872405831   0.875000000000000   1.0000000
N2   N   0.388895596959187   0.277791193918401   0.875000000000000   1.0000000
N2   N   0.555551460927460   0.777777455234763   0.875000000000000   1.0000000
N2   N   0.888887847663026   0.777779557358150   0.875000000000000   1.0000000
N2   N   0.722225994307223   0.277781872405831   0.875000000000000   1.0000000
N2   N   0.055770498990260   0.777562834343093   0.375000000000000   1.0000000
N2   N   0.388539690876420   0.779243762148803   0.375000000000000   1.0000000
N2   N   0.221099362545784   0.277216347939580   0.375000000000000   1.0000000
N2   N   0.722965477373322   0.778886323818460   0.375000000000000   1.0000000
N2   N   0.556116985393773   0.277216347939580   0.375000000000000   1.0000000
N2   N   0.888741439416092   0.277482878832160   0.375000000000000   1.0000000
N2   N   0.055553775975192   0.444441623638205   0.875000000000000   1.0000000
N2   N   0.222219976951895   0.944439953903789   0.875000000000000   1.0000000
N2   N   0.555555568903767   0.944444451118564   0.875000000000000   1.0000000
N2   N   0.388895596959187   0.444437736374142   0.875000000000000   1.0000000
N2   N   0.888888882214765   0.944444451118564   0.875000000000000   1.0000000
N2   N   0.054089571184556   0.942629262060989   0.375000000000000   1.0000000
N2   N   0.722226564782910   0.444444007115425   0.875000000000000   1.0000000
N2   N   0.388539690876420   0.942629262060989   0.375000000000000   1.0000000
N2   N   0.216910012159412   0.445614336065566   0.375000000000000   1.0000000
N2   N   0.221098474369045   0.612234858964289   0.375000000000000   1.0000000
N2   N   0.577614256284107   0.455473794808718   0.375000000000000   1.0000000
N2   N   0.722418999938376   0.944837999876810   0.375000000000000   1.0000000
N2   N   0.890704071272340   0.444793642456909   0.375000000000000   1.0000000
N2   N   0.055556297831965   0.611112595663905   0.875000000000000   1.0000000
N2   N   0.222217442332555   0.111106768550460   0.875000000000000   1.0000000
N2   N   0.722226564782910   0.611115891000770   0.875000000000000   1.0000000
N2   N   0.555551460927460   0.111107339026090   0.875000000000000   1.0000000
N2   N   0.888886108938806   0.111109721136071   0.875000000000000   1.0000000
B2   B   0.107664251409267   0.052371328651269   0.375000000000000   1.0000000
B2   B   0.619241380163993   0.562423215882051   0.375000000000000   1.0000000
B2   B   0.444707077242013   0.052371328651269   0.375000000000000   1.0000000
B2   B   0.945415804912753   0.555862636712069   0.375000000000000   1.0000000
B2   B   0.777777777777779   0.055555555555557   0.375000000000000   1.0000000
B2   B   0.111111111111114   0.722222222222221   0.875000000000000   1.0000000
B2   B   0.444444117892594   0.722231069747323   0.875000000000000   1.0000000
B2   B   0.277742463630877   0.222225369289844   0.875000000000000   1.0000000
B2   B   0.777786951854708   0.722231069747323   0.875000000000000   1.0000000
B2   B   0.611101649623055   0.222231683710274   0.875000000000000   1.0000000
B2   B   0.944423616357178   0.222236075093444   0.875000000000000   1.0000000
B2   B   0.277470696621245   0.722886501533976   0.375000000000000   1.0000000
B2   B   0.110069375804629   0.221701354568990   0.375000000000000   1.0000000
B2   B   0.443181835718090   0.214091953169352   0.375000000000000   1.0000000
B2   B   0.611631978764353   0.723263957528735   0.375000000000000   1.0000000
B2   B   0.945415804912753   0.722886501533976   0.375000000000000   1.0000000
B2   B   0.777946471370477   0.221759248179145   0.375000000000000   1.0000000
B2   B   0.111140748307298   0.888899123949016   0.875000000000000   1.0000000
B2   B   0.444476592657551   0.888904962995401   0.875000000000000   1.0000000
B2   B   0.277742463630877   0.388850427674361   0.875000000000000   1.0000000
B2   B   0.611107964043487   0.388850427674361   0.875000000000000   1.0000000
B2   B   0.777812458736299   0.888909716976150   0.875000000000000   1.0000000
B2   B   0.944428370337928   0.388856740675778   0.875000000000000   1.0000000
B2   B   0.107664251409267   0.388626256091316   0.375000000000000   1.0000000
B2   B   0.277470696621245   0.887917528420575   0.375000000000000   1.0000000
B2   B   0.611574085154209   0.889520556524618   0.375000000000000   1.0000000
B2   B   0.944245008026590   0.889088325306739   0.375000000000000   1.0000000
B2   B   0.780962004682035   0.388626256091316   0.375000000000000   1.0000000
B2   B   0.277755348557151   0.555577984776147   0.875000000000000   1.0000000
B2   B   0.111102263586018   0.055546381478603   0.875000000000000   1.0000000
B2   B   0.611107964043487   0.555590869702446   0.875000000000000   1.0000000
B2   B   0.444444117892594   0.055546381478603   0.875000000000000   1.0000000
B2   B   0.944434209384313   0.555574957691638   0.875000000000000   1.0000000
B2   B   0.110446831799358   0.555862636712069   0.375000000000000   1.0000000
B2   B   0.777777777777779   0.055555555555557   0.875000000000000   1.0000000
B2   B   0.276107016711528   0.052214033423080   0.375000000000000   1.0000000
B2   B   0.443181835718090   0.562423215882051   0.375000000000000   1.0000000
B2   B   0.781119299910280   0.557226316621751   0.375000000000000   1.0000000
B2   B   0.611574085154209   0.055386861962870   0.375000000000000   1.0000000
B2   B   0.444482905658968   0.555590869702446   0.875000000000000   1.0000000
B2   B   0.943812776808711   0.055386861962870   0.375000000000000   1.0000000
B2   B   0.277758375641711   0.722192585026030   0.875000000000000   1.0000000
B2   B   0.111130034087229   0.222231683710274   0.875000000000000   1.0000000
B2   B   0.444482905658968   0.222225369289844   0.875000000000000   1.0000000
B2   B   0.611101649623055   0.722203299246071   0.875000000000000   1.0000000
B2   B   0.944434209384313   0.722192585026030   0.875000000000000   1.0000000
B2   B   0.777812458736299   0.222236075093444   0.875000000000000   1.0000000
B2   B   0.111111111111114   0.722222222222221   0.375000000000000   1.0000000
B2   B   0.444707077242013   0.725669081924067   0.375000000000000   1.0000000
B2   B   0.270910117451244   0.214091953169352   0.375000000000000   1.0000000
B2   B   0.780962004682035   0.725669081924067   0.375000000000000   1.0000000
B2   B   0.611631978764353   0.221701354568990   0.375000000000000   1.0000000
B2   B   0.943812776808711   0.221759248179145   0.375000000000000   1.0000000
B2   B   0.111102263586018   0.388889215440734   0.875000000000000   1.0000000
B2   B   0.277758375641711   0.888899123949016   0.875000000000000   1.0000000
B2   B   0.611097258239898   0.888909716976150   0.875000000000000   1.0000000
B2   B   0.444444444444443   0.388888888888886   0.875000000000000   1.0000000
B2   B   0.944428370337928   0.888904962995401   0.875000000000000   1.0000000
B2   B   0.110446831799358   0.887917528420575   0.375000000000000   1.0000000
B2   B   0.777786951854708   0.388889215440734   0.875000000000000   1.0000000
B2   B   0.444843317280109   0.889088325306739   0.375000000000000   1.0000000
B2   B   0.270910117451244   0.390151497615238   0.375000000000000   1.0000000
B2   B   0.276107016711528   0.557226316621751   0.375000000000000   1.0000000
B2   B   0.619241380163993   0.390151497615238   0.375000000000000   1.0000000
B2   B   0.777946471370477   0.889520556524618   0.375000000000000   1.0000000
B2   B   0.944245008026590   0.388490016053214   0.375000000000000   1.0000000
B2   B   0.111140748307298   0.555574957691638   0.875000000000000   1.0000000
B2   B   0.277755348557151   0.055510697114346   0.875000000000000   1.0000000
B2   B   0.777822636219034   0.555577984776147   0.875000000000000   1.0000000
B2   B   0.611097258239898   0.055520874597066   0.875000000000000   1.0000000
B2   B   0.944423616357178   0.055520874597066   0.875000000000000   1.0000000
B2   B   0.055541625715218   0.111074103133782   0.124596714151589   1.0000000
B2   B   0.555593281271403   0.611186562542779   0.124076380347489   1.0000000
B2   B   0.388887585784954   0.111028995958954   0.124192420055558   1.0000000
B2   B   0.888907777102448   0.611120555217881   0.124796982196587   1.0000000
B2   B   0.722241778600857   0.111091554732452   0.125011864314100   1.0000000
B2   B   0.055574457448987   0.777758875884371   0.624926076299655   1.0000000
B2   B   0.388901149921521   0.777774666108149   0.625099053302439   1.0000000
B2   B   0.222146770790574   0.277740052061946   0.625923619652512   1.0000000
B2   B   0.722259230199613   0.777791707618117   0.625403285848442   1.0000000
B2   B   0.555593281271403   0.277740052061946   0.625923619652512   1.0000000
B2   B   0.888887394323090   0.277774788646194   0.625001055386964   1.0000000
B2   B   0.222184418435350   0.777758875884371   0.125073923700389   1.0000000
B2   B   0.055541625715218   0.277800855914761   0.124596714151589   1.0000000
B2   B   0.388782245803835   0.277564491607675   0.124831630504236   1.0000000
B2   B   0.555532477418560   0.777791707618117   0.124596714151589   1.0000000
B2   B   0.888873516186629   0.777774666108149   0.124900946697601   1.0000000
B2   B   0.722259230199613   0.277800855914761   0.124596714151589   1.0000000
B2   B   0.055558667225190   0.944459817146700   0.625099053302439   1.0000000
B2   B   0.388901149921521   0.944459817146700   0.625099053302439   1.0000000
B2   B   0.222141410174016   0.444445747548374   0.625807579944454   1.0000000
B2   B   0.555768841725660   0.444551087529494   0.625168369495731   1.0000000
B2   B   0.722241778600857   0.944483557201794   0.624988135685905   1.0000000
B2   B   0.888873516186629   0.444432183411807   0.625099053302439   1.0000000
B2   B   0.055558667225190   0.444432183411807   0.124900946697601   1.0000000
B2   B   0.222212778115442   0.944425556230881   0.124796982196587   1.0000000
B2   B   0.555558544687144   0.944445939010238   0.124998944613061   1.0000000
B2   B   0.388782245803835   0.444551087529494   0.124831630504236   1.0000000
B2   B   0.888887394323090   0.944445939010238   0.124998944613061   1.0000000
B2   B   0.722304337374365   0.444445747548374   0.124192420055558   1.0000000
B2   B   0.222212778115442   0.611120555217881   0.625203017803425   1.0000000
B2   B   0.055541625715218   0.111074103133782   0.625403285848442   1.0000000
B2   B   0.555593281271403   0.611186562542779   0.625923619652512   1.0000000
B2   B   0.388887585784954   0.111028995958954   0.625807579944454   1.0000000
B2   B   0.888907777102448   0.611120555217881   0.625203017803425   1.0000000
B2   B   0.055574457448987   0.611148914898005   0.125073923700389   1.0000000
B2   B   0.722241778600857   0.111091554732452   0.624988135685905   1.0000000
B2   B   0.222141410174016   0.111028995958954   0.124192420055558   1.0000000
B2   B   0.388887585784954   0.611191923159323   0.124192420055558   1.0000000
B2   B   0.722304337374365   0.611191923159323   0.124192420055558   1.0000000
B2   B   0.555532477418560   0.111074103133782   0.124596714151589   1.0000000
B2   B   0.388887585784954   0.611191923159323   0.625807579944454   1.0000000
B2   B   0.888849776131535   0.111091554732452   0.125011864314100   1.0000000
B2   B   0.222184418435350   0.777758875884371   0.624926076299655   1.0000000
B2   B   0.055541625715218   0.277800855914761   0.625403285848442   1.0000000
B2   B   0.388782245803835   0.277564491607675   0.625168369495731   1.0000000
B2   B   0.555532477418560   0.777791707618117   0.625403285848442   1.0000000
B2   B   0.888873516186629   0.777774666108149   0.625099053302439   1.0000000
B2   B   0.722259230199613   0.277800855914761   0.625403285848442   1.0000000
B2   B   0.055574457448987   0.777758875884371   0.125073923700389   1.0000000
B2   B   0.388901149921521   0.777774666108149   0.124900946697601   1.0000000
B2   B   0.222146770790574   0.277740052061946   0.124076380347489   1.0000000
B2   B   0.722259230199613   0.777791707618117   0.124596714151589   1.0000000
B2   B   0.555593281271403   0.277740052061946   0.124076380347489   1.0000000
B2   B   0.888887394323090   0.277774788646194   0.124998944613061   1.0000000
B2   B   0.055558667225190   0.444432183411807   0.625099053302439   1.0000000
B2   B   0.222212778115442   0.944425556230881   0.625203017803425   1.0000000
B2   B   0.555558544687144   0.944445939010238   0.625001055386964   1.0000000
B2   B   0.388782245803835   0.444551087529494   0.625168369495731   1.0000000
B2   B   0.888887394323090   0.944445939010238   0.625001055386964   1.0000000
B2   B   0.055558667225190   0.944459817146700   0.124900946697601   1.0000000
B2   B   0.722304337374365   0.444445747548374   0.625807579944454   1.0000000
B2   B   0.388901149921521   0.944459817146700   0.124900946697601   1.0000000
B2   B   0.222141410174016   0.444445747548374   0.124192420055558   1.0000000
B2   B   0.222212778115442   0.611120555217881   0.124796982196587   1.0000000
B2   B   0.555768841725660   0.444551087529494   0.124831630504236   1.0000000
B2   B   0.722241778600857   0.944483557201794   0.125011864314100   1.0000000
B2   B   0.888873516186629   0.444432183411807   0.124900946697601   1.0000000
B2   B   0.055574457448987   0.611148914898005   0.624926076299655   1.0000000
B2   B   0.222141410174016   0.111028995958954   0.625807579944454   1.0000000
B2   B   0.722304337374365   0.611191923159323   0.625807579944454   1.0000000
B2   B   0.555532477418560   0.111074103133782   0.625403285848442   1.0000000
B2   B   0.888849776131535   0.111091554732452   0.624988135685905   1.0000000


