data_1
_audit_creation_method   'vasp2cif'
_cell_length_a    17.52789999999977
_cell_length_b    17.52789999999977
_cell_length_c    15.0
_cell_angle_alpha    90.0
_cell_angle_beta    90.0
_cell_angle_gamma    119.99999999999916

_symmetry_space_group_name_H-M    'P 1'
loop_
_atom_site_label
_atom_site_type_symbol
_atom_site_fract_x
_atom_site_fract_y
_atom_site_fract_z
_atom_site_occupancy
B2   B   0.910842394037670   0.955471014816847   0.110771738798407   1.0000000
B2   B   0.909217251877388   0.096208173842397   0.110872532188661   1.0000000
B2   B   0.908733102153412   0.237679824002105   0.110791971271590   1.0000000
B2   B   0.908971448381213   0.379902263972852   0.110738892235840   1.0000000
B2   B   0.909372455647351   0.522816333193470   0.110832367990959   1.0000000
B2   B   0.910051363023002   0.666028442801739   0.110875774596968   1.0000000
B2   B   0.905490604715078   0.807887392325807   0.110665100792425   1.0000000
B2   B   0.051166696281614   0.954282575602706   0.110766568484453   1.0000000
B2   B   0.053108418786527   0.097842188321700   0.110871480160665   1.0000000
B2   B   0.051653692541764   0.238757115428600   0.110925331710008   1.0000000
B2   B   0.050314719334567   0.380948258123013   0.110745607834339   1.0000000
B2   B   0.049409698876197   0.524378029152759   0.110760667819896   1.0000000
B2   B   0.050136376588076   0.668026703034058   0.110852368467966   1.0000000
B2   B   0.049907106504986   0.811177266109268   0.110825499600105   1.0000000
B2   B   0.193646071164595   0.955553790500826   0.110813089900169   1.0000000
B2   B   0.196731150117337   0.100198165153084   0.110820926126594   1.0000000
B2   B   0.195938800399582   0.241016316346641   0.110877582900685   1.0000000
B2   B   0.192328248207013   0.381547022448639   0.110764174044380   1.0000000
B2   B   0.188709100385399   0.525082115287029   0.110730459638951   1.0000000
B2   B   0.189548947585396   0.669088302631822   0.110893048145897   1.0000000
B2   B   0.192016132784706   0.812290124445166   0.110901121888056   1.0000000
B2   B   0.335505573242895   0.955302843598548   0.110868654482319   1.0000000
B2   B   0.337627911360961   0.099082483579517   0.110842207569636   1.0000000
B2   B   0.344106570442967   0.247532103307442   0.110814441274199   1.0000000
B2   B   0.337797287274138   0.383772219578172   0.110708164102154   1.0000000
B2   B   0.326598361154570   0.526179990657828   0.110635854517618   1.0000000
B2   B   0.327623730978597   0.670167642325500   0.110768410074843   1.0000000
B2   B   0.333762507847142   0.812733419373735   0.110901760229889   1.0000000
B2   B   0.477681371100336   0.953692634613182   0.110792170969952   1.0000000
B2   B   0.479176317937997   0.095702733032109   0.110881516284785   1.0000000
B2   B   0.481322267645473   0.238423347628777   0.110922396332163   1.0000000
B2   B   0.499222871010173   0.393930945229974   0.110694659512014   1.0000000
B2   B   0.462988754289717   0.667176168526005   0.110449908018443   1.0000000
B2   B   0.476145488490698   0.811477918207169   0.110676985944875   1.0000000
B2   B   0.620903653150096   0.955395064853827   0.110793480480179   1.0000000
B2   B   0.621857686819094   0.094808805419774   0.110777371390280   1.0000000
B2   B   0.623071101881995   0.234347659874551   0.110863788030624   1.0000000
B2   B   0.625918519925218   0.372694882874637   0.111036636495331   1.0000000
B2   B   0.616512650055008   0.498415570444908   0.110490522109393   1.0000000
B2   B   0.621077138721821   0.816947151973816   0.110248007898246   1.0000000
B2   B   0.765801753899442   0.954646038122598   0.110759602011146   1.0000000
B2   B   0.765466077728510   0.095405011050659   0.110778651913888   1.0000000
B2   B   0.766049322193385   0.236393060855681   0.110740432314606   1.0000000
B2   B   0.767594889913477   0.377711129625895   0.110858194293189   1.0000000
B2   B   0.768207592342119   0.518845905090292   0.110983127365030   1.0000000
B2   B   0.765585996916767   0.656771435946014   0.110388248510596   1.0000000
B2   B   0.769008646933967   0.815347132205175   0.110225801278365   1.0000000
In2   In   0.615646599360359   0.657398414338432   0.110089606015627   1.0000000
N2   N   0.955416001932181   0.904954294849902   0.110686059292791   1.0000000
N2   N   0.958190320281523   0.050190491623269   0.110834650844782   1.0000000
N2   N   0.956701544777782   0.190924000624360   0.110883931524174   1.0000000
N2   N   0.956012691320907   0.332517045751366   0.110725118007341   1.0000000
N2   N   0.955715547661615   0.475065470231149   0.110742373151662   1.0000000
N2   N   0.956506498410378   0.618429313444353   0.110835991836635   1.0000000
N2   N   0.954855916026611   0.761843354396829   0.110778340300901   1.0000000
N2   N   0.098379994861585   0.906777442952637   0.110776998647991   1.0000000
N2   N   0.100534520272577   0.050492950153535   0.110792141737296   1.0000000
N2   N   0.100526435622779   0.192671182814266   0.110928852676053   1.0000000
N2   N   0.097840460873790   0.333493737394468   0.110810119281413   1.0000000
N2   N   0.095301736980062   0.476052667335644   0.110696251852812   1.0000000
N2   N   0.095869836588265   0.619825298750261   0.110823508633834   1.0000000
N2   N   0.097171788951002   0.763575017866020   0.110845314045144   1.0000000
N2   N   0.240378836861629   0.907525858536296   0.110845932805341   1.0000000
N2   N   0.242379816045122   0.051038467209162   0.110798843005462   1.0000000
N2   N   0.246313609052754   0.196481870869815   0.110828837026310   1.0000000
N2   N   0.242033789641449   0.335551982415950   0.110786424271736   1.0000000
N2   N   0.234122311900141   0.476269020306157   0.110664856033946   1.0000000
N2   N   0.234268187239156   0.620484036631117   0.110797685269404   1.0000000
N2   N   0.238627145981210   0.764426124025071   0.110927186739881   1.0000000
N2   N   0.382450492521929   0.907453868913893   0.110845002842086   1.0000000
N2   N   0.383986878259074   0.050120352201232   0.110853191347310   1.0000000
N2   N   0.386448023731197   0.194335447890293   0.110830490151660   1.0000000
N2   N   0.395697954521853   0.345582478589703   0.110711270639470   1.0000000
N2   N   0.372008628051917   0.477402639945394   0.110582574935196   1.0000000
N2   N   0.370187470060479   0.620972193753135   0.110638852172973   1.0000000
N2   N   0.380246088314436   0.765039111045958   0.110775594762168   1.0000000
N2   N   0.525173985218550   0.906518665659616   0.110710306479371   1.0000000
N2   N   0.526515555090849   0.048137418896969   0.110799488730856   1.0000000
N2   N   0.527974350813175   0.189643415680871   0.110902884659346   1.0000000
N2   N   0.531333606277667   0.331822964638436   0.110925322442007   1.0000000
N2   N   0.459676807947900   0.521272263389637   0.110368252886296   1.0000000
N2   N   0.491950741570604   0.607402143187082   0.110187692312088   1.0000000
N2   N   0.522971413635619   0.763312219669881   0.110398839730935   1.0000000
N2   N   0.669600183655145   0.910770528492279   0.110753268375741   1.0000000
N2   N   0.670086082700147   0.049110047302025   0.110759451267078   1.0000000
N2   N   0.670983206287662   0.188431627220065   0.110748055101356   1.0000000
N2   N   0.673232804739969   0.327396598406090   0.110925285876766   1.0000000
N2   N   0.674805820333879   0.464810979649375   0.111092185278593   1.0000000
N2   N   0.674266522626933   0.592542525419082   0.109803903858784   1.0000000
N2   N   0.678161586281399   0.783217672619449   0.109506312110540   1.0000000
N2   N   0.816942124470942   0.909925867415313   0.110694578700297   1.0000000
N2   N   0.813971590536300   0.049142092837472   0.110798766151383   1.0000000
N2   N   0.813856039376021   0.189847794783081   0.110726450114870   1.0000000
N2   N   0.814713384856084   0.330955525741378   0.110739307856696   1.0000000
N2   N   0.815746616519914   0.472617418751898   0.110880260463960   1.0000000
N2   N   0.816965732930171   0.614870339898827   0.110890245692045   1.0000000
N2   N   0.808995877289361   0.757675039055443   0.110403974266841   1.0000000


