data_1
_audit_creation_method   'vasp2cif'
_cell_length_a    17.52789999999977
_cell_length_b    17.52789999999977
_cell_length_c    15.0
_cell_angle_alpha    90.0
_cell_angle_beta    90.0
_cell_angle_gamma    119.99999999999916

_symmetry_space_group_name_H-M    'P 1'
loop_
_atom_site_label
_atom_site_type_symbol
_atom_site_fract_x
_atom_site_fract_y
_atom_site_fract_z
_atom_site_occupancy
B2   B   0.904897167164363   0.951981978029645   0.117758262453992   1.0000000
B2   B   0.905176179971115   0.094971805849317   0.117960164707079   1.0000000
B2   B   0.905270282441773   0.237901958662823   0.117226133838432   1.0000000
B2   B   0.905294327351985   0.380793846554275   0.116076817515385   1.0000000
B2   B   0.904779635124641   0.523529897594179   0.114733948684000   1.0000000
B2   B   0.904051346524885   0.666042795285909   0.114668324878241   1.0000000
B2   B   0.903576993630739   0.808184480589868   0.115968880825256   1.0000000
B2   B   0.047799180987544   0.952351064636754   0.117593446894564   1.0000000
B2   B   0.048160696687785   0.095244819398029   0.117761693000115   1.0000000
B2   B   0.048191398841207   0.238084620830875   0.116677149355704   1.0000000
B2   B   0.048056176872601   0.380939726998884   0.115119006113677   1.0000000
B2   B   0.047810142322307   0.523762894773754   0.114905681450888   1.0000000
B2   B   0.047552721200137   0.666533069772631   0.115600166475784   1.0000000
B2   B   0.047430431374644   0.809332156080212   0.116792048479203   1.0000000
B2   B   0.190817168807475   0.952722077065636   0.116789593151980   1.0000000
B2   B   0.191964913473426   0.096578839927702   0.115965897752709   1.0000000
B2   B   0.191184838379161   0.238482914784234   0.114851188695888   1.0000000
B2   B   0.190833775941940   0.381095377013891   0.110270779300449   1.0000000
B2   B   0.190633217186830   0.523824521799413   0.109328885730638   1.0000000
B2   B   0.190702412995324   0.666648803508605   0.111907659361966   1.0000000
B2   B   0.190574136009958   0.809578811042846   0.115419327059131   1.0000000
B2   B   0.333614411914426   0.952597334143594   0.115591616630357   1.0000000
B2   B   0.334105788389297   0.096097840144713   0.114656116849338   1.0000000
B2   B   0.336687030021509   0.241532608754413   0.111340424089538   1.0000000
B2   B   0.332753209104386   0.381609713297805   0.099332594463650   1.0000000
B2   B   0.332714463979272   0.523082572874948   0.091445394709157   1.0000000
B2   B   0.333714171942034   0.666436465806855   0.102152675393092   1.0000000
B2   B   0.333498442364873   0.809449148919459   0.111890120997093   1.0000000
B2   B   0.476382061134365   0.952340540072294   0.114883427612408   1.0000000
B2   B   0.476617683753811   0.095366268955680   0.114715986068006   1.0000000
B2   B   0.477102244493237   0.238637148712790   0.110446483288634   1.0000000
B2   B   0.483361909285201   0.386453879820407   0.106387104041362   1.0000000
B2   B   0.477074006638438   0.667444646906582   0.091453368440916   1.0000000
B2   B   0.476329467709257   0.809529794578261   0.109323484907978   1.0000000
B2   B   0.619216205736900   0.952102914011594   0.115119132297173   1.0000000
B2   B   0.619356135036968   0.094853079454454   0.116078977563353   1.0000000
B2   B   0.619607697367943   0.237463621327237   0.113040411303495   1.0000000
B2   B   0.620413657594565   0.379733142907323   0.108383330251241   1.0000000
B2   B   0.613694889511272   0.516787003318858   0.106387322449112   1.0000000
B2   B   0.618540006497295   0.667395477339304   0.099339656062421   1.0000000
B2   B   0.619059054792730   0.809320035150316   0.110281863675454   1.0000000
B2   B   0.762056122533014   0.951950104725532   0.116676688661823   1.0000000
B2   B   0.762257926966189   0.094887348807859   0.117228421926148   1.0000000
B2   B   0.762413240721474   0.237731998280742   0.116120850774454   1.0000000
B2   B   0.762684570057023   0.380538944697688   0.113046931687818   1.0000000
B2   B   0.761507508433149   0.523040101885754   0.110462765796716   1.0000000
B2   B   0.758619696748212   0.663462660945511   0.111350061130535   1.0000000
B2   B   0.761670951671852   0.808962837482421   0.114863244119392   1.0000000
N2   N   0.952102450904222   0.903925196617517   0.117459171038102   1.0000000
N2   N   0.952822708898336   0.047321366083574   0.118165990803278   1.0000000
N2   N   0.952847536462350   0.190259685296048   0.117663246791493   1.0000000
N2   N   0.952766194696862   0.333169656990885   0.116640635930380   1.0000000
N2   N   0.952453182484058   0.476039988818105   0.115776858864054   1.0000000
N2   N   0.951991420355145   0.618730087571623   0.115338226037733   1.0000000
N2   N   0.951803183102570   0.761206292140378   0.116073709393083   1.0000000
N2   N   0.095401315433507   0.904749476116521   0.117396024001481   1.0000000
N2   N   0.096224388112267   0.048047422426061   0.117459546107701   1.0000000
N2   N   0.095868450946290   0.190416582942956   0.117193755627164   1.0000000
N2   N   0.095545851578725   0.333255756314975   0.114606972466683   1.0000000
N2   N   0.095344816645922   0.476174284705991   0.113863860413787   1.0000000
N2   N   0.095268698501968   0.619033679113322   0.114558642755920   1.0000000
N2   N   0.095143252384290   0.761836222712592   0.116254528284202   1.0000000
N2   N   0.238313644619055   0.905008494590098   0.116249381119077   1.0000000
N2   N   0.238942856413306   0.048350353652185   0.116064063514449   1.0000000
N2   N   0.240690777866122   0.192536150073748   0.114033907236199   1.0000000
N2   N   0.238095677001046   0.332956734361554   0.111061349881709   1.0000000
N2   N   0.237921869155059   0.476208779308754   0.105807730175812   1.0000000
N2   N   0.238278947393091   0.619118548980354   0.107528630617927   1.0000000
N2   N   0.238157205798132   0.761992139641875   0.112995288250855   1.0000000
N2   N   0.381112963144029   0.904881328642916   0.114542380195667   1.0000000
N2   N   0.381418005684168   0.048157513167164   0.115322104990719   1.0000000
N2   N   0.382348523902365   0.192014862954384   0.112172317908200   1.0000000
N2   N   0.386773102870125   0.339135932520661   0.106975529938633   1.0000000
N2   N   0.374897224497781   0.471997759512716   0.078233916249766   1.0000000
N2   N   0.381075045449311   0.619081293323196   0.091183931246226   1.0000000
N2   N   0.381034249198911   0.761875885797149   0.107519689838286   1.0000000
N2   N   0.523979019992129   0.904814826452070   0.113844498964586   1.0000000
N2   N   0.524109001322173   0.047695603378825   0.115757685354310   1.0000000
N2   N   0.524435506711332   0.190794580724879   0.112667964368305   1.0000000
N2   N   0.525569424868341   0.334477825382764   0.107226939275069   1.0000000
N2   N   0.528153737585935   0.625255760757365   0.078237546960907   1.0000000
N2   N   0.523945453424544   0.762237713078995   0.105816887519020   1.0000000
N2   N   0.666891024301791   0.904605050637940   0.114609929597750   1.0000000
N2   N   0.666986671299327   0.047389652488945   0.116649459273673   1.0000000
N2   N   0.667120579222629   0.190102589815346   0.115479058704476   1.0000000
N2   N   0.667514880383243   0.332632763464359   0.111137386278015   1.0000000
N2   N   0.665669888870386   0.474578027981925   0.107225660689583   1.0000000
N2   N   0.661014642332008   0.613376205410622   0.106983808299776   1.0000000
N2   N   0.667194852949161   0.762054241928487   0.111079919662571   1.0000000
N2   N   0.809728238484001   0.904277201921309   0.117197959862383   1.0000000
N2   N   0.809887705006009   0.047298015736393   0.117659532059421   1.0000000
N2   N   0.809958728564487   0.190195355658678   0.117236993680297   1.0000000
N2   N   0.810044437104051   0.333025324258093   0.115475757682307   1.0000000
N2   N   0.809352521872862   0.475710352728955   0.112681527952159   1.0000000
N2   N   0.808133657549677   0.617797350032973   0.112186484060210   1.0000000
N2   N   0.807618451215041   0.759458800316704   0.114037109157750   1.0000000
Ge2   Ge   0.484090408183316   0.516049510638141   0.018538508397123   1.0000000


