data_1
_audit_creation_method   'vasp2cif'
_cell_length_a    17.52789999999977
_cell_length_b    17.52789999999977
_cell_length_c    15.0
_cell_angle_alpha    90.0
_cell_angle_beta    90.0
_cell_angle_gamma    119.99999999999916

_symmetry_space_group_name_H-M    'P 1'
loop_
_atom_site_label
_atom_site_type_symbol
_atom_site_fract_x
_atom_site_fract_y
_atom_site_fract_z
_atom_site_occupancy
B2   B   0.904769892678968   0.952497845939330   0.111019116206994   1.0000000
B2   B   0.904741303396511   0.095260475538490   0.111039095583922   1.0000000
B2   B   0.904736824763621   0.238040986460205   0.111037487860222   1.0000000
B2   B   0.904761517689897   0.380849388278917   0.111008390662936   1.0000000
B2   B   0.904965382494682   0.523706030148745   0.111009065921402   1.0000000
B2   B   0.904733727179240   0.666648007409844   0.111047953166264   1.0000000
B2   B   0.904972404020160   0.809837898899937   0.111042273075551   1.0000000
B2   B   0.047576870079731   0.952424861542269   0.111015761447867   1.0000000
B2   B   0.047503875934670   0.095231800648033   0.111019114692991   1.0000000
B2   B   0.047500788732785   0.238025985824162   0.111010545444638   1.0000000
B2   B   0.047517812959213   0.380840129028273   0.111023826337238   1.0000000
B2   B   0.047580143639531   0.523735199283270   0.111017240878752   1.0000000
B2   B   0.047608310607258   0.666634204508464   0.111023432051710   1.0000000
B2   B   0.047618201527386   0.809556893049303   0.111007315566952   1.0000000
B2   B   0.190444838650693   0.952383497189614   0.111007312681950   1.0000000
B2   B   0.190163859746063   0.095029334358838   0.111042269471550   1.0000000
B2   B   0.190299927050675   0.238067827677011   0.111010340551665   1.0000000
B2   B   0.190310227822470   0.380799852607384   0.111006400254491   1.0000000
B2   B   0.190171939503127   0.523699410690844   0.111044796014543   1.0000000
B2   B   0.190440959818221   0.666633582952148   0.111050819407696   1.0000000
B2   B   0.190471032552581   0.809530567850415   0.111007945326946   1.0000000
B2   B   0.333367412990539   0.952393247133744   0.111023434172716   1.0000000
B2   B   0.333353785391157   0.095267953424761   0.111047952033261   1.0000000
B2   B   0.332690251936668   0.237688268944819   0.111041055094358   1.0000000
B2   B   0.333544455075265   0.381062719037200   0.111020959440586   1.0000000
B2   B   0.332688755615973   0.523569332377513   0.111025552866461   1.0000000
B2   B   0.333352152392989   0.666649776541009   0.111053704964113   1.0000000
B2   B   0.333368067488852   0.809560781437779   0.111050820936692   1.0000000
B2   B   0.476266415882722   0.952421521293472   0.111017247775749   1.0000000
B2   B   0.476295652751254   0.095035974441315   0.111009074209400   1.0000000
B2   B   0.476433069654737   0.237690030793672   0.111042660633484   1.0000000
B2   B   0.475605000244507   0.379789959159107   0.111035475403265   1.0000000
B2   B   0.475590525182808   0.524411017857192   0.111056341704887   1.0000000
B2   B   0.476432400709491   0.667313112434026   0.111025553293461   1.0000000
B2   B   0.476302356646152   0.809830155372868   0.111044803645544   1.0000000
B2   B   0.619161630321726   0.952484023845785   0.111023830085237   1.0000000
B2   B   0.619152315871085   0.095240083393102   0.111008393740936   1.0000000
B2   B   0.619189604364266   0.238073113683064   0.111017952847492   1.0000000
B2   B   0.618949068460853   0.381052683706149   0.111006083381609   1.0000000
B2   B   0.620211905526891   0.524396775617496   0.111035473771262   1.0000000
B2   B   0.618938910655803   0.666457117179737   0.111020956794589   1.0000000
B2   B   0.619201815217620   0.809691547725524   0.111006401428492   1.0000000
B2   B   0.761975739566832   0.952500995649216   0.111010552778640   1.0000000
B2   B   0.761960765900797   0.095264919275382   0.111037490203223   1.0000000
B2   B   0.761964915174553   0.238036716298452   0.111049710937132   1.0000000
B2   B   0.761928447171940   0.380812071685731   0.111017947728493   1.0000000
B2   B   0.762311624352328   0.523568765928262   0.111042657326490   1.0000000
B2   B   0.762313552810180   0.667311507045327   0.111041059220359   1.0000000
B2   B   0.761933829292989   0.809701728822325   0.111010348752664   1.0000000
C2   C   0.523795516157236   0.476206341531764   0.111113472908614   1.0000000
N2   N   0.952599351461247   0.905108220428263   0.111013374493990   1.0000000
N2   N   0.952303337286393   0.047698392552606   0.111010063475491   1.0000000
N2   N   0.952223802143839   0.190393545746204   0.111018451857249   1.0000000
N2   N   0.952303995466464   0.333175501994719   0.111010306995138   1.0000000
N2   N   0.952597503930081   0.476067086105608   0.110981603631950   1.0000000
N2   N   0.952716712477146   0.619102669201486   0.111013093088039   1.0000000
N2   N   0.952721629522536   0.762185165323622   0.111020856115149   1.0000000
N2   N   0.095234591156172   0.904767136317828   0.110988489701805   1.0000000
N2   N   0.094893520752732   0.047402368662750   0.111013386904990   1.0000000
N2   N   0.094775146713084   0.190240593620600   0.111001444194657   1.0000000
N2   N   0.094781338119856   0.333093923566306   0.110996069872529   1.0000000
N2   N   0.094899011178953   0.476064087812041   0.111018190463337   1.0000000
N2   N   0.095231220853817   0.619043553453809   0.111018983129071   1.0000000
N2   N   0.095326740044196   0.761952550766782   0.110997474120878   1.0000000
N2   N   0.238049070728221   0.904674848675800   0.110997472369881   1.0000000
N2   N   0.237816606036375   0.047280086037467   0.111020853657148   1.0000000
N2   N   0.237050720318915   0.189588262052838   0.111019332304602   1.0000000
N2   N   0.237295315870989   0.332928832690925   0.110993274879647   1.0000000
N2   N   0.237052480249383   0.476026396493580   0.111012322245094   1.0000000
N2   N   0.237815137139682   0.619103440661880   0.111035501648937   1.0000000
N2   N   0.238046837683366   0.761954828844634   0.111018507104307   1.0000000
N2   N   0.380958078873190   0.904770419777181   0.111018985919067   1.0000000
N2   N   0.380899002854515   0.047284767375858   0.111013102246040   1.0000000
N2   N   0.380552885057473   0.189671735880411   0.111040557459264   1.0000000
N2   N   0.378904104615534   0.331277860219636   0.111008832367949   1.0000000
N2   N   0.378898039550118   0.476200244947681   0.111008622882405   1.0000000
N2   N   0.380553423126585   0.619448370357411   0.111011340918038   1.0000000
N2   N   0.380898361739122   0.762186852942316   0.111035505176938   1.0000000
N2   N   0.523937705315959   0.905103051693047   0.111018198124330   1.0000000
N2   N   0.523934648582390   0.047403957657918   0.110981609087952   1.0000000
N2   N   0.523966661974076   0.189591210352026   0.111015571420828   1.0000000
N2   N   0.523803527932940   0.331280237370742   0.110999001848759   1.0000000
N2   N   0.523801240889316   0.621103476212885   0.111008621485406   1.0000000
N2   N   0.523975247255422   0.762949531212619   0.111012330009095   1.0000000
N2   N   0.666907794471694   0.905220474281140   0.110996070947531   1.0000000
N2   N   0.666826277775283   0.047697766305533   0.111010310360141   1.0000000
N2   N   0.666896861607070   0.190250184292291   0.111017830820715   1.0000000
N2   N   0.667069440810910   0.332932175619088   0.110995608316773   1.0000000
N2   N   0.668721555025264   0.476198223789056   0.110999001293754   1.0000000
N2   N   0.668724018956361   0.621097620113469   0.111008825915951   1.0000000
N2   N   0.667072777926080   0.762706294606998   0.110993274254647   1.0000000
N2   N   0.809761074491399   0.905226560536916   0.111001455395660   1.0000000
N2   N   0.809608222232796   0.047777989282163   0.111018458120250   1.0000000
N2   N   0.809604066883893   0.190397630260108   0.111027069172665   1.0000000
N2   N   0.809751365533704   0.333104795238932   0.111017825866719   1.0000000
N2   N   0.810410111780976   0.476035024154920   0.111015560538831   1.0000000
N2   N   0.810330022130584   0.619448891907527   0.111040557139265   1.0000000
N2   N   0.810413496107165   0.762951007377080   0.111019349973597   1.0000000


