data_1
_audit_creation_method   'vasp2cif'
_cell_length_a    17.52789999999977
_cell_length_b    17.52789999999977
_cell_length_c    15.0
_cell_angle_alpha    90.0
_cell_angle_beta    90.0
_cell_angle_gamma    119.99999999999916

_symmetry_space_group_name_H-M    'P 1'
loop_
_atom_site_label
_atom_site_type_symbol
_atom_site_fract_x
_atom_site_fract_y
_atom_site_fract_z
_atom_site_occupancy
B2   B   0.904911960863908   0.953037540496356   0.110966660436299   1.0000000
B2   B   0.904267114738094   0.095730574028747   0.111032681783240   1.0000000
B2   B   0.904049482559044   0.238623456373543   0.111019123596091   1.0000000
B2   B   0.903986037920574   0.381439793040183   0.110961478044956   1.0000000
B2   B   0.904516686966388   0.524268853017686   0.111043739312666   1.0000000
B2   B   0.905991353714555   0.667470500472207   0.111150524089396   1.0000000
B2   B   0.906296226975088   0.810904238008402   0.111000141105015   1.0000000
B2   B   0.047682950943210   0.952324020658049   0.110983526078621   1.0000000
B2   B   0.046958234413868   0.095085405596551   0.111023833311614   1.0000000
B2   B   0.046936136406246   0.238174001637841   0.111033221483723   1.0000000
B2   B   0.047279009992669   0.381038898205587   0.111012448418007   1.0000000
B2   B   0.047923606266522   0.523707732017103   0.110964758315608   1.0000000
B2   B   0.048343592077244   0.666581187510796   0.110997185169522   1.0000000
B2   B   0.048346636823458   0.809582503913748   0.110969596726184   1.0000000
B2   B   0.190427194678117   0.951662664580537   0.111036102896199   1.0000000
B2   B   0.189100026974410   0.093712837138830   0.111025980573800   1.0000000
B2   B   0.189190441531977   0.237119513755097   0.111076358792970   1.0000000
B2   B   0.190169958723918   0.380537325543152   0.111247112249580   1.0000000
B2   B   0.191662737199599   0.523178329101021   0.111147880378437   1.0000000
B2   B   0.191328047321573   0.666033804369234   0.111058978227333   1.0000000
B2   B   0.191040121113042   0.808971289107374   0.111000673647767   1.0000000
B2   B   0.333430868157800   0.951669776380841   0.111070409051594   1.0000000
B2   B   0.332536200108147   0.094026652056401   0.110992089865205   1.0000000
B2   B   0.330042146080553   0.234450387401584   0.110813454245140   1.0000000
B2   B   0.331773856978828   0.379128101996039   0.111141525710020   1.0000000
B2   B   0.336121278785818   0.522327225140792   0.111236193322798   1.0000000
B2   B   0.334580399332205   0.665416986919263   0.111079354098310   1.0000000
B2   B   0.333969422645458   0.808675006552239   0.111051505141176   1.0000000
B2   B   0.476297972242558   0.952078671830786   0.111031943185630   1.0000000
B2   B   0.475738857395066   0.095510872925115   0.110939605554705   1.0000000
B2   B   0.474569935481439   0.238569553867830   0.110867166573146   1.0000000
B2   B   0.468573582087467   0.377587285434818   0.111376724675535   1.0000000
B2   B   0.482672252738226   0.517204959634611   0.111227505226153   1.0000000
B2   B   0.477667960352096   0.663840249632682   0.110939848963100   1.0000000
B2   B   0.476819427573059   0.808320043591638   0.110879757703741   1.0000000
B2   B   0.618960240101207   0.952713454901704   0.110981300642268   1.0000000
B2   B   0.618558189641122   0.096011629361609   0.111027088650259   1.0000000
B2   B   0.617932641876520   0.239471203377268   0.110987193020283   1.0000000
B2   B   0.616803046512489   0.383206257974826   0.111114741172617   1.0000000
B2   B   0.622528596892424   0.531439085839952   0.111265393644052   1.0000000
B2   B   0.620857769931681   0.668189715296781   0.110876187244997   1.0000000
B2   B   0.619457711177893   0.809815132330536   0.110711099630811   1.0000000
B2   B   0.761823885637461   0.953058835517976   0.110953249529089   1.0000000
B2   B   0.761373962407936   0.095948284858145   0.111102629608625   1.0000000
B2   B   0.760987395234717   0.239013227950586   0.111083552500117   1.0000000
B2   B   0.760536449199555   0.382075144127853   0.111106289660424   1.0000000
B2   B   0.761475092931266   0.525437872544894   0.111185956183799   1.0000000
B2   B   0.765574864431150   0.669966857362258   0.111067293260631   1.0000000
B2   B   0.762878463088741   0.810799665136466   0.110841813579005   1.0000000
N2   N   0.952902604611033   0.905611668462389   0.110939587618261   1.0000000
N2   N   0.951951838105516   0.048043762120385   0.110998676189218   1.0000000
N2   N   0.951703708389352   0.190916236201948   0.110980975738740   1.0000000
N2   N   0.951789463104322   0.333839109924573   0.110935096457014   1.0000000
N2   N   0.952248378968209   0.476604690296253   0.110915753034247   1.0000000
N2   N   0.953023938689657   0.619420438135897   0.111029712162536   1.0000000
N2   N   0.953319619331502   0.762568182668438   0.111006341728328   1.0000000
N2   N   0.095400355889031   0.904607970893016   0.110952977071478   1.0000000
N2   N   0.094392258586158   0.047103180565134   0.111020185804693   1.0000000
N2   N   0.094251183139244   0.190173158380533   0.111031927560160   1.0000000
N2   N   0.094832568782759   0.333367884697691   0.111076724920876   1.0000000
N2   N   0.095867811833068   0.476176866200895   0.111001996277337   1.0000000
N2   N   0.095934460626527   0.618866123202346   0.110983385919073   1.0000000
N2   N   0.095853124211926   0.761739810727998   0.110949394334057   1.0000000
N2   N   0.238272355210329   0.904158367964913   0.111017474875364   1.0000000
N2   N   0.237437951708491   0.046690611910618   0.111060436801859   1.0000000
N2   N   0.235736071640599   0.188353980528044   0.110934482615261   1.0000000
N2   N   0.237042067962180   0.332378868564127   0.111228282465675   1.0000000
N2   N   0.239839415807187   0.475636084544618   0.111294284036106   1.0000000
N2   N   0.239190926520858   0.618360741894716   0.111104328525884   1.0000000
N2   N   0.238735766209077   0.761268050459140   0.111031872651416   1.0000000
N2   N   0.381139661307608   0.904070765301373   0.111053919700415   1.0000000
N2   N   0.380587121528088   0.046993423961417   0.111016797605246   1.0000000
N2   N   0.379507639124812   0.189187051565329   0.110775031802686   1.0000000
N2   N   0.376401596497509   0.328867874169211   0.110887995698670   1.0000000
N2   N   0.384895878579617   0.474278377870140   0.111188834327370   1.0000000
N2   N   0.382537151996599   0.617453366333211   0.111081993077884   1.0000000
N2   N   0.381637747610205   0.760805014229524   0.110979201472236   1.0000000
N2   N   0.523822718881243   0.904123415877277   0.110956005519168   1.0000000
N2   N   0.523393839693189   0.047759685677484   0.110990337217169   1.0000000
N2   N   0.522692862894881   0.191287189455942   0.110841619864581   1.0000000
N2   N   0.520810877552841   0.335217512169028   0.111082197796657   1.0000000
N2   N   0.525703373507513   0.615033400253647   0.111013143372218   1.0000000
N2   N   0.524360178897533   0.760133836337358   0.110715814659828   1.0000000
N2   N   0.666629795297278   0.905155440469726   0.110843996279878   1.0000000
N2   N   0.666157036360876   0.048206194470400   0.111058725275473   1.0000000
N2   N   0.665662836568407   0.191591885883766   0.111013380813915   1.0000000
N2   N   0.664760670140105   0.335245997087106   0.111053069027221   1.0000000
N2   N   0.664850780842145   0.479197645169491   0.111105925587243   1.0000000
N2   N   0.671160167222192   0.623601296119489   0.110967460160084   1.0000000
N2   N   0.667612856148294   0.762932276630428   0.110675361677445   1.0000000
N2   N   0.809823284163389   0.905740594826578   0.110898194720796   1.0000000
N2   N   0.809080924691584   0.048293141359767   0.111064591039707   1.0000000
N2   N   0.808724175815858   0.191275231553834   0.111079877292988   1.0000000
N2   N   0.808407779518902   0.334338484121000   0.111024857262233   1.0000000
N2   N   0.808743760696891   0.477314163071676   0.111153686723343   1.0000000
N2   N   0.810835700391915   0.620499579145950   0.111255252634104   1.0000000
N2   N   0.811657054631067   0.764267723579585   0.110970109998583   1.0000000


