data_1
_audit_creation_method   'vasp2cif'
_cell_length_a    17.52789999999977
_cell_length_b    17.52789999999977
_cell_length_c    15.0
_cell_angle_alpha    90.0
_cell_angle_beta    90.0
_cell_angle_gamma    119.99999999999916

_symmetry_space_group_name_H-M    'P 1'
loop_
_atom_site_label
_atom_site_type_symbol
_atom_site_fract_x
_atom_site_fract_y
_atom_site_fract_z
_atom_site_occupancy
P2   P   0.402194706307937   0.480496010233467   0.202281642477454   1.0000000
B2   B   0.907884382058072   0.953793059165879   0.103129036179385   1.0000000
B2   B   0.907965418815365   0.096716809919102   0.103266395859172   1.0000000
B2   B   0.907540716462894   0.239122054616703   0.105417350762296   1.0000000
B2   B   0.906650574216113   0.381363898797031   0.106974350107732   1.0000000
B2   B   0.904310583849753   0.523355044383326   0.108467936768883   1.0000000
B2   B   0.904427109895862   0.665698640135226   0.108565994977822   1.0000000
B2   B   0.905772746631417   0.809177084266854   0.105838445246879   1.0000000
B2   B   0.049568610850089   0.952368323611540   0.102951524373026   1.0000000
B2   B   0.050834141900311   0.096403874306385   0.103312075827238   1.0000000
B2   B   0.050997749175206   0.239317362752154   0.107483880206660   1.0000000
B2   B   0.050530773094197   0.381341888707760   0.109864692671534   1.0000000
B2   B   0.049351856131274   0.523480843427889   0.107777537207220   1.0000000
B2   B   0.048518519022044   0.665790307562213   0.105972656275677   1.0000000
B2   B   0.048607755186262   0.808691934437378   0.104373330875748   1.0000000
B2   B   0.192008980332404   0.951565797152323   0.102090674463435   1.0000000
B2   B   0.192983883159345   0.095426292291150   0.102618497507424   1.0000000
B2   B   0.194119709030021   0.239354846023695   0.109577162474832   1.0000000
B2   B   0.194393277234476   0.381510749834438   0.120548801932138   1.0000000
B2   B   0.193857725076162   0.523358345329530   0.116003754123752   1.0000000
B2   B   0.192677176125845   0.665848737738109   0.107615544110814   1.0000000
B2   B   0.191979468041588   0.808517242689371   0.103768605466022   1.0000000
B2   B   0.335062708335032   0.951389960867411   0.102002692423594   1.0000000
B2   B   0.335054183788233   0.094007003797627   0.100910367984127   1.0000000
B2   B   0.336545787059368   0.237615384087054   0.104505028733358   1.0000000
B2   B   0.337340241450485   0.377493480074069   0.134600146464182   1.0000000
B2   B   0.337537546264663   0.526244414267759   0.142272820748493   1.0000000
B2   B   0.336793134712530   0.666930034458621   0.114600931734820   1.0000000
B2   B   0.335559904510193   0.808967685254523   0.105171604613825   1.0000000
B2   B   0.478444985834920   0.952015465679282   0.103218815306517   1.0000000
B2   B   0.478144683422901   0.094147504728416   0.102135883164422   1.0000000
B2   B   0.477859233125157   0.235766264068144   0.104689570377376   1.0000000
B2   B   0.479784241256031   0.377223401318786   0.117082072744439   1.0000000
B2   B   0.480065992261805   0.668302453708863   0.130130055000651   1.0000000
B2   B   0.479203714961658   0.809913753662576   0.110002125953507   1.0000000
B2   B   0.621835772035459   0.953725404863535   0.104676320891501   1.0000000
B2   B   0.621417970739857   0.095817907080613   0.103394001962510   1.0000000
B2   B   0.620955269919625   0.238310239312166   0.105909740994374   1.0000000
B2   B   0.619771018277254   0.380974410934017   0.114426350565949   1.0000000
B2   B   0.605487095157262   0.521950652392549   0.131319332753251   1.0000000
B2   B   0.625581559710652   0.673232463982823   0.125421343615068   1.0000000
B2   B   0.622473482672872   0.812218278782481   0.112101051972951   1.0000000
B2   B   0.765114553784077   0.954230339519889   0.103954190297072   1.0000000
B2   B   0.764713364190682   0.096547063021231   0.103577892179218   1.0000000
B2   B   0.764142172697269   0.238880616089127   0.105385980106814   1.0000000
B2   B   0.762911088969173   0.381254200460726   0.109445018465394   1.0000000
B2   B   0.757933126864176   0.522945162789107   0.115438211994994   1.0000000
B2   B   0.760882050559881   0.665549978515298   0.114233492295752   1.0000000
B2   B   0.765501500535429   0.811975775546082   0.108024535741033   1.0000000
N2   N   0.954256654610933   0.904833949779000   0.103578442933410   1.0000000
N2   N   0.955485044762126   0.048893391199703   0.102697818834071   1.0000000
N2   N   0.955356344967559   0.191675632221200   0.104814586223368   1.0000000
N2   N   0.954815640101450   0.334116305499320   0.106854350113732   1.0000000
N2   N   0.953429355042347   0.476467354615301   0.107258076770298   1.0000000
N2   N   0.952819833189818   0.618615599250188   0.107414848379826   1.0000000
N2   N   0.953138762728387   0.761223501253000   0.106006467143473   1.0000000
N2   N   0.096628974561351   0.904031731344862   0.103059061588781   1.0000000
N2   N   0.097494618282722   0.047637907497695   0.102681533539163   1.0000000
N2   N   0.098372416103695   0.191354241036258   0.105570446241181   1.0000000
N2   N   0.098379587212311   0.334068723811751   0.112200279341338   1.0000000
N2   N   0.097787343479290   0.476468482065539   0.110254659446667   1.0000000
N2   N   0.096860841251851   0.618729670358176   0.106702340714288   1.0000000
N2   N   0.096420002880341   0.761129672940281   0.104536827614072   1.0000000
N2   N   0.239620926718385   0.903784256016702   0.102386661785997   1.0000000
N2   N   0.239750872298141   0.046632184684887   0.101222010636784   1.0000000
N2   N   0.240836797746661   0.190314782324145   0.104860681307460   1.0000000
N2   N   0.241603940278594   0.333417999367534   0.120873895515086   1.0000000
N2   N   0.241691643386599   0.476580691102332   0.126551364021463   1.0000000
N2   N   0.240887741593268   0.619057879946270   0.112298894665878   1.0000000
N2   N   0.240002893054122   0.761297110290073   0.104941460734740   1.0000000
N2   N   0.383036819879151   0.904218898356425   0.103017048209795   1.0000000
N2   N   0.382746668543546   0.046367857031798   0.101177439678251   1.0000000
N2   N   0.382847363001468   0.188625458495507   0.101340918606974   1.0000000
N2   N   0.385382251616243   0.332255014479447   0.111867945298036   1.0000000
N2   N   0.385088366982907   0.621211617512756   0.125804095504481   1.0000000
N2   N   0.383811508998601   0.762312716202245   0.108609666261520   1.0000000
N2   N   0.526609508800397   0.905251966240238   0.105021171825387   1.0000000
N2   N   0.526116536193808   0.047125592594486   0.102492797019822   1.0000000
N2   N   0.525874711881961   0.188839160069495   0.103598313523789   1.0000000
N2   N   0.525742464904561   0.329827326512581   0.110509428611982   1.0000000
N2   N   0.505685455066952   0.537306847807034   0.143593731488066   1.0000000
N2   N   0.533788602521236   0.627205853008598   0.141258031756974   1.0000000
N2   N   0.527703101763592   0.763686152213196   0.117300099051872   1.0000000
N2   N   0.670026827845207   0.907090572098826   0.105823511467849   1.0000000
N2   N   0.669453371735581   0.048810271126602   0.103416185693312   1.0000000
N2   N   0.668949594922928   0.190958132544691   0.104611136477360   1.0000000
N2   N   0.668166387644803   0.333554727562797   0.109754020728931   1.0000000
N2   N   0.661416706970812   0.476051579666657   0.121763698746266   1.0000000
N2   N   0.665631329446914   0.618960803431788   0.122854471692409   1.0000000
N2   N   0.671578566941789   0.766663534438667   0.113201292465586   1.0000000
N2   N   0.813053022962572   0.906935572581369   0.103937550392543   1.0000000
N2   N   0.812650687131927   0.049276392849154   0.102949496412254   1.0000000
N2   N   0.812137285764054   0.191577093635129   0.104531454313910   1.0000000
N2   N   0.811326215570901   0.333993224243062   0.106903302799400   1.0000000
N2   N   0.808459639172475   0.476344549262484   0.111052536995097   1.0000000
N2   N   0.808871193554849   0.618459616715187   0.112788385153197   1.0000000
N2   N   0.810564312148269   0.761831955181329   0.108676223501625   1.0000000


