data_1
_audit_creation_method   'vasp2cif'
_cell_length_a    17.52789999999977
_cell_length_b    17.52789999999977
_cell_length_c    15.0
_cell_angle_alpha    90.0
_cell_angle_beta    90.0
_cell_angle_gamma    119.99999999999916

_symmetry_space_group_name_H-M    'P 1'
loop_
_atom_site_label
_atom_site_type_symbol
_atom_site_fract_x
_atom_site_fract_y
_atom_site_fract_z
_atom_site_occupancy
B2   B   0.906439971250686   0.953783294216935   0.111003901829566   1.0000000
B2   B   0.904673842456940   0.095402707264502   0.111029309038875   1.0000000
B2   B   0.904117414803775   0.237946931538616   0.111043507899113   1.0000000
B2   B   0.903975564140968   0.380820535750781   0.110973037133212   1.0000000
B2   B   0.905131728219715   0.524034329083310   0.110965853208418   1.0000000
B2   B   0.906446697461783   0.667582879480585   0.111058097975192   1.0000000
B2   B   0.906652879063917   0.810630346916108   0.111035777827882   1.0000000
B2   B   0.048552497474357   0.952974188724486   0.110984853520941   1.0000000
B2   B   0.048127829932856   0.095655929744874   0.110990496758603   1.0000000
B2   B   0.047031127263112   0.237682466182743   0.110978168554005   1.0000000
B2   B   0.046702398364347   0.380454952232406   0.111000807880080   1.0000000
B2   B   0.047081265823517   0.523634811329053   0.110983187494167   1.0000000
B2   B   0.048024428610562   0.666782974645721   0.110997292606260   1.0000000
B2   B   0.048540112966734   0.809939699182912   0.110978766935964   1.0000000
B2   B   0.190663943548676   0.952185946484761   0.110987613841493   1.0000000
B2   B   0.190762089961678   0.095270020690717   0.111028620305596   1.0000000
B2   B   0.190215834950767   0.237916589824542   0.110964163210346   1.0000000
B2   B   0.189069689090433   0.379674876168153   0.110966757624883   1.0000000
B2   B   0.188839306741928   0.523159492237098   0.111054335690282   1.0000000
B2   B   0.190084738081873   0.666453830517672   0.111060673148990   1.0000000
B2   B   0.190708875378950   0.809408696003555   0.110980716703678   1.0000000
B2   B   0.333322298403431   0.951939012422810   0.111023806435148   1.0000000
B2   B   0.332858668128696   0.094391963237448   0.111071138305359   1.0000000
B2   B   0.333062972558774   0.237160543810352   0.111068843475854   1.0000000
B2   B   0.332697289931575   0.380828696927313   0.111081074172422   1.0000000
B2   B   0.329274474933840   0.521954212115352   0.111040861283461   1.0000000
B2   B   0.331979309907504   0.665895009135367   0.111096294168099   1.0000000
B2   B   0.333313180169874   0.809019258531715   0.111063747110184   1.0000000
B2   B   0.476006514659439   0.951370051386861   0.110989698393267   1.0000000
B2   B   0.475811486746935   0.095559426634583   0.110965818659419   1.0000000
B2   B   0.474519084690845   0.239033503235792   0.111051896185276   1.0000000
B2   B   0.471209297857762   0.660378800449469   0.111117115791353   1.0000000
B2   B   0.475784496635646   0.806526220969806   0.111021440761364   1.0000000
B2   B   0.618675325864710   0.951689532066432   0.110990414407193   1.0000000
B2   B   0.618474200364022   0.095103539195323   0.110963349668490   1.0000000
B2   B   0.618252894515882   0.238544173953491   0.110984440012520   1.0000000
B2   B   0.617291524945662   0.382547285227763   0.111009950552918   1.0000000
B2   B   0.645109002128949   0.676669153502387   0.111087965105780   1.0000000
B2   B   0.619486178472893   0.808791651595579   0.110996618966796   1.0000000
B2   B   0.762176356304944   0.952659305668388   0.110974653908536   1.0000000
B2   B   0.761389042404765   0.095178911620244   0.111045859727786   1.0000000
B2   B   0.761173428688982   0.238177751073475   0.111027472418901   1.0000000
B2   B   0.760936967553262   0.381282198875794   0.110985775710717   1.0000000
B2   B   0.764287977077226   0.526334900195614   0.110958563810053   1.0000000
B2   B   0.763123171674037   0.666432853989680   0.111067724879187   1.0000000
B2   B   0.766488027528118   0.812524303738339   0.111006503154625   1.0000000
C2   C   0.473976514893137   0.382966188966318   0.111321103900118   1.0000000
C2   C   0.469552440923551   0.524818274185942   0.111345014293694   1.0000000
C2   C   0.511078498159874   0.476231002575058   0.111582194990000   1.0000000
N2   N   0.953654855707024   0.905915753727981   0.110988858207891   1.0000000
N2   N   0.953180677488023   0.048617360124385   0.110994137608266   1.0000000
N2   N   0.952061477554760   0.190474867261529   0.111012636321679   1.0000000
N2   N   0.951743032876239   0.333103537663369   0.110984523946947   1.0000000
N2   N   0.952196572507394   0.475983054180817   0.110931240137980   1.0000000
N2   N   0.953242171393377   0.619263920914636   0.110986387008010   1.0000000
N2   N   0.953862524537540   0.762814451752170   0.111016974445743   1.0000000
N2   N   0.095986598507594   0.905238746415375   0.110945340809316   1.0000000
N2   N   0.096071156126089   0.048380607964020   0.110985575920170   1.0000000
N2   N   0.095651902677587   0.190899478807357   0.110949181952158   1.0000000
N2   N   0.094691823835536   0.332826384358909   0.110957959015998   1.0000000
N2   N   0.094533897114805   0.475710535935777   0.111000017494572   1.0000000
N2   N   0.095376492781929   0.618848320310676   0.110994559028654   1.0000000
N2   N   0.095915527365318   0.762058454276146   0.110953427832862   1.0000000
N2   N   0.238451547876526   0.904715296622579   0.110967701708054   1.0000000
N2   N   0.238320285990975   0.047777764622166   0.111036127707591   1.0000000
N2   N   0.238907345047153   0.191372806632295   0.110995477888223   1.0000000
N2   N   0.238477301005822   0.333371623480504   0.110950482294603   1.0000000
N2   N   0.236277284457385   0.474866436688799   0.110989801462547   1.0000000
N2   N   0.237636026210180   0.618294275179351   0.111078265518307   1.0000000
N2   N   0.238443242724715   0.761578339950525   0.111027458595944   1.0000000
N2   N   0.381011188083879   0.904081306285817   0.111011668865790   1.0000000
N2   N   0.380818215972666   0.047532522381124   0.111016222818781   1.0000000
N2   N   0.380374484525806   0.190590002665018   0.111050196522423   1.0000000
N2   N   0.383130920413457   0.335012476030182   0.111133068021353   1.0000000
N2   N   0.379334074339032   0.476356309904432   0.111091494297599   1.0000000
N2   N   0.379292957864138   0.616351345934587   0.111056361611031   1.0000000
N2   N   0.381030952373261   0.760397678570116   0.111055268198752   1.0000000
N2   N   0.523290266344212   0.902158082757131   0.110972810179429   1.0000000
N2   N   0.523188519350199   0.047200039857070   0.110930251421634   1.0000000
N2   N   0.522675673049278   0.191986208859504   0.110951831064112   1.0000000
N2   N   0.519441676673124   0.337314848660912   0.111136155118634   1.0000000
N2   N   0.523332128458717   0.754978702217546   0.111027477894913   1.0000000
N2   N   0.666014563643050   0.903510161622998   0.110953816314843   1.0000000
N2   N   0.665834645117190   0.046927719273853   0.110976121512565   1.0000000
N2   N   0.665592525676615   0.190508011234829   0.110977747316884   1.0000000
N2   N   0.664585862888590   0.333488952021047   0.110985479768736   1.0000000
N2   N   0.671503434296879   0.473097575177687   0.110788829989459   1.0000000
N2   N   0.668873726766541   0.618105826862983   0.111047551846624   1.0000000
N2   N   0.669308784913179   0.764594812475148   0.110985059365601   1.0000000
N2   N   0.811153978355884   0.906564715945970   0.110964180011443   1.0000000
N2   N   0.809171666216608   0.047609473328787   0.111008128509152   1.0000000
N2   N   0.808776124926345   0.190343645066352   0.111045889378338   1.0000000
N2   N   0.808496246260415   0.333283328504202   0.110973212184906   1.0000000
N2   N   0.809953643647378   0.476294731557732   0.110958229728187   1.0000000
N2   N   0.812035200203000   0.620579412129246   0.111029159014846   1.0000000
N2   N   0.811729888899673   0.763362143065116   0.111031210104412   1.0000000


