data_1
_audit_creation_method   'vasp2cif'
_cell_length_a    17.52789999999977
_cell_length_b    17.52789999999977
_cell_length_c    15.0
_cell_angle_alpha    90.0
_cell_angle_beta    90.0
_cell_angle_gamma    119.99999999999916

_symmetry_space_group_name_H-M    'P 1'
loop_
_atom_site_label
_atom_site_type_symbol
_atom_site_fract_x
_atom_site_fract_y
_atom_site_fract_z
_atom_site_occupancy
B2   B   0.904887016223826   0.952862991150562   0.109614545728210   1.0000000
B2   B   0.905460793850931   0.095900373374654   0.110990383987048   1.0000000
B2   B   0.905674799918640   0.238550385262621   0.111009167280745   1.0000000
B2   B   0.905448329122994   0.380973670274130   0.110836292264674   1.0000000
B2   B   0.904872006776283   0.523440534536623   0.112082866116555   1.0000000
B2   B   0.900610918412758   0.665402016915046   0.113497827786753   1.0000000
B2   B   0.900666841571013   0.806709354486419   0.108463955963998   1.0000000
B2   B   0.045623237272989   0.951022315408033   0.110535487383096   1.0000000
B2   B   0.048054455424017   0.095644616915808   0.110991459198561   1.0000000
B2   B   0.048872114353287   0.238859862153928   0.110995834558874   1.0000000
B2   B   0.048863863754626   0.381448658003866   0.110861670153169   1.0000000
B2   B   0.048033266790188   0.523829313319222   0.110762791823909   1.0000000
B2   B   0.045600630398308   0.666041746160668   0.111195339029679   1.0000000
B2   B   0.045088720171466   0.808259236276046   0.110835028818272   1.0000000
B2   B   0.188749605657408   0.951328297509696   0.110892334393739   1.0000000
B2   B   0.189554882715600   0.094405499612209   0.111095572348870   1.0000000
B2   B   0.191775254908796   0.238932455077293   0.110951076655722   1.0000000
B2   B   0.192460454621194   0.381952068494488   0.110969407766476   1.0000000
B2   B   0.191757412493509   0.524280579163486   0.110970758464811   1.0000000
B2   B   0.189534869579543   0.666575837847737   0.110805460057148   1.0000000
B2   B   0.188748634998897   0.808861916627927   0.110920100429647   1.0000000
B2   B   0.332010122324695   0.951710388310179   0.110903762346827   1.0000000
B2   B   0.332229089269564   0.094068096780377   0.111037014311178   1.0000000
B2   B   0.332988444158919   0.236960338994443   0.110964094502315   1.0000000
B2   B   0.336249133076025   0.382050486580354   0.110842461004952   1.0000000
B2   B   0.336236850122495   0.525629005541970   0.111714292304367   1.0000000
B2   B   0.332985848659692   0.667451599823575   0.111239005232415   1.0000000
B2   B   0.332220284247262   0.809578856407780   0.110918014684815   1.0000000
B2   B   0.475391943984341   0.952495996565943   0.110794638782241   1.0000000
B2   B   0.475405294367305   0.094325816133055   0.110981691935840   1.0000000
B2   B   0.475586114811029   0.236287845269403   0.110860409568549   1.0000000
B2   B   0.476395201535705   0.378846709698163   0.109697553126867   1.0000000
B2   B   0.476431904268246   0.668978210765799   0.113132732228770   1.0000000
B2   B   0.475573244940059   0.810719557258245   0.111176331865753   1.0000000
B2   B   0.618798568006663   0.953447608606903   0.110624159349204   1.0000000
B2   B   0.618834052109046   0.095124889988427   0.110849749533503   1.0000000
B2   B   0.618822509552247   0.236768602074994   0.111097221705247   1.0000000
B2   B   0.618517137021350   0.378077697667195   0.110885222267214   1.0000000
B2   B   0.628517263466944   0.526194360679478   0.108613657582278   1.0000000
B2   B   0.628811631050769   0.673737317409173   0.115246674534326   1.0000000
B2   B   0.618525454485820   0.811830899137836   0.110979036051532   1.0000000
B2   B   0.762098422206658   0.953428666702339   0.110108227923679   1.0000000
B2   B   0.762294366520156   0.095772720061717   0.110995645219227   1.0000000
B2   B   0.762304449658437   0.237933034777011   0.110847378349810   1.0000000
B2   B   0.762102641359348   0.380082011014177   0.111561780883026   1.0000000
B2   B   0.762481580331825   0.522542493880020   0.114158998401660   1.0000000
B2   B   0.747562781264737   0.659661208919226   0.111624237359867   1.0000000
B2   B   0.762512173763297   0.811415627480884   0.107918895192077   1.0000000
C2   C   0.479185646020944   0.525315553529476   0.112013858762972   1.0000000
C2   C   0.527042797240707   0.480364142921691   0.109110587081962   1.0000000
C2   C   0.527112687458280   0.618133049262512   0.114829095653475   1.0000000
N2   N   0.950112881335370   0.903037568877010   0.109452376095360   1.0000000
N2   N   0.952891230333283   0.048162203658719   0.110783911206183   1.0000000
N2   N   0.953474356245564   0.191163919514042   0.111092304804455   1.0000000
N2   N   0.953467365017089   0.333735378478147   0.110826659215299   1.0000000
N2   N   0.952873650366449   0.476146157926474   0.110912805462760   1.0000000
N2   N   0.950070837352359   0.618506997065455   0.112234158569566   1.0000000
N2   N   0.949436893407421   0.760439027072379   0.110856637941270   1.0000000
N2   N   0.093328094745097   0.903583593515071   0.110671302146879   1.0000000
N2   N   0.094280611086744   0.046761983486020   0.111032523908235   1.0000000
N2   N   0.096401473582806   0.191203827308983   0.110979088475941   1.0000000
N2   N   0.096958925237700   0.334201095539941   0.110900641100383   1.0000000
N2   N   0.096386751345746   0.476630898073791   0.110771957388014   1.0000000
N2   N   0.094252339847227   0.618945622228773   0.110724667680105   1.0000000
N2   N   0.093323959002883   0.761181061063739   0.111019317224097   1.0000000
N2   N   0.236619692259648   0.904027890377640   0.110896529618537   1.0000000
N2   N   0.236920504272961   0.046634030502904   0.111000567803419   1.0000000
N2   N   0.237929953671176   0.189933948932108   0.111056972273108   1.0000000
N2   N   0.240598845024970   0.334795505013323   0.110845967890570   1.0000000
N2   N   0.240587914392948   0.477244863026174   0.111172844078479   1.0000000
N2   N   0.237919586711331   0.619427305095005   0.110905639848656   1.0000000
N2   N   0.236907089602679   0.761714139221993   0.110869464665868   1.0000000
N2   N   0.380000628802094   0.904632555872198   0.110862156817313   1.0000000
N2   N   0.380009080503627   0.046791927640370   0.110937717532333   1.0000000
N2   N   0.380319672869339   0.189238580518311   0.111024778348475   1.0000000
N2   N   0.381513707499791   0.332375323183373   0.110585465658441   1.0000000
N2   N   0.385997842430962   0.478723175783913   0.111555123307041   1.0000000
N2   N   0.381532446552075   0.620567899173289   0.111910093484924   1.0000000
N2   N   0.380309919741871   0.762500721922555   0.111049775952465   1.0000000
N2   N   0.523429185220866   0.905641151022160   0.110710667332672   1.0000000
N2   N   0.523418464963891   0.047419679547039   0.110833493116972   1.0000000
N2   N   0.523443946213742   0.189218536032229   0.111071467952736   1.0000000
N2   N   0.523480596092925   0.331110050890913   0.110240492012580   1.0000000
N2   N   0.523484834579127   0.763794648215367   0.111925501373869   1.0000000
N2   N   0.666701738432539   0.906464478272611   0.110231697741128   1.0000000
N2   N   0.666890956475856   0.048281621510108   0.110842694164890   1.0000000
N2   N   0.666901391227600   0.190021376648026   0.110855125160703   1.0000000
N2   N   0.666708746747388   0.331640727057413   0.111408779321747   1.0000000
N2   N   0.667655844663373   0.473099502948302   0.111056604154927   1.0000000
N2   N   0.667678494614071   0.765933317572601   0.110934293961950   1.0000000
N2   N   0.809976445091855   0.906042275596650   0.108799147789045   1.0000000
N2   N   0.810087611636403   0.048454222486119   0.110930649203897   1.0000000
N2   N   0.810281538251791   0.190844650313745   0.110973888366912   1.0000000
N2   N   0.810086568939329   0.333046427327901   0.110808149776221   1.0000000
N2   N   0.809961281184082   0.475368517500326   0.112855900026943   1.0000000
N2   N   0.804240158811028   0.617702573375046   0.116518012485442   1.0000000
N2   N   0.804347370830718   0.758110982681479   0.106002913900254   1.0000000


