data_1
_audit_creation_method   'vasp2cif'
_cell_length_a    17.52789999999977
_cell_length_b    17.52789999999977
_cell_length_c    15.0
_cell_angle_alpha    90.0
_cell_angle_beta    90.0
_cell_angle_gamma    119.99999999999916

_symmetry_space_group_name_H-M    'P 1'
loop_
_atom_site_label
_atom_site_type_symbol
_atom_site_fract_x
_atom_site_fract_y
_atom_site_fract_z
_atom_site_occupancy
B2   B   0.904670027448497   0.951551498531668   0.111026784354942   1.0000000
B2   B   0.905594821036513   0.094566858801173   0.111063024867680   1.0000000
B2   B   0.905881386203653   0.237560325590530   0.111063781435941   1.0000000
B2   B   0.905806772277952   0.380865335896464   0.111016386403719   1.0000000
B2   B   0.904516175436815   0.523977766277013   0.111000607092548   1.0000000
B2   B   0.903825723710055   0.666496459806949   0.111074022691492   1.0000000
B2   B   0.903396780107379   0.808422295038041   0.111043338193137   1.0000000
B2   B   0.049250098949420   0.954689487281114   0.110999105218923   1.0000000
B2   B   0.049776991631015   0.096892308795519   0.111006454629703   1.0000000
B2   B   0.049255093623003   0.238774022216630   0.111023702528645   1.0000000
B2   B   0.047941845224814   0.381487945621265   0.111027925791941   1.0000000
B2   B   0.046809867784297   0.524691840180038   0.111013651760258   1.0000000
B2   B   0.047028991504758   0.667793485141329   0.111006579683496   1.0000000
B2   B   0.047581867234129   0.810859482384130   0.110982797037260   1.0000000
B2   B   0.191585802065698   0.955093149043159   0.110967835472068   1.0000000
B2   B   0.196126181078199   0.101715226594170   0.111029107169971   1.0000000
B2   B   0.194630317172056   0.242131607907440   0.111002124214132   1.0000000
B2   B   0.190898349508713   0.383028608283306   0.110993352586495   1.0000000
B2   B   0.188377093028229   0.525515466695631   0.111068800154036   1.0000000
B2   B   0.189289174912533   0.668431967049204   0.111099247532154   1.0000000
B2   B   0.190285409996370   0.811436630557256   0.111007456636444   1.0000000
B2   B   0.333768277890414   0.954286740026338   0.111028093567720   1.0000000
B2   B   0.335431455450865   0.098603229577926   0.111043739597873   1.0000000
B2   B   0.346791729802007   0.251382462912474   0.111067429620065   1.0000000
B2   B   0.335878185018541   0.387849353408805   0.111027215933553   1.0000000
B2   B   0.329112400714140   0.528508599122238   0.111010352837223   1.0000000
B2   B   0.331209192767434   0.669297794608852   0.111096882508224   1.0000000
B2   B   0.332773595072844   0.811330031200729   0.111110071619820   1.0000000
B2   B   0.476325467385762   0.951706991548354   0.111030165989277   1.0000000
B2   B   0.477299814340445   0.094140626598078   0.111014512627471   1.0000000
B2   B   0.478526240083689   0.235666768786315   0.110970238850375   1.0000000
B2   B   0.472467209857054   0.664724167326882   0.111015094120457   1.0000000
B2   B   0.475329751927702   0.808647451983814   0.111074678015245   1.0000000
B2   B   0.618967785366569   0.950415301059168   0.111002232209224   1.0000000
B2   B   0.619975467593872   0.093642638885844   0.111009485867868   1.0000000
B2   B   0.621294452960088   0.236320220742660   0.111004895199761   1.0000000
B2   B   0.623465548819862   0.379526233926128   0.110977439550949   1.0000000
B2   B   0.608698987709794   0.510716114024010   0.111092054507210   1.0000000
B2   B   0.614647007752780   0.659591210866943   0.111025946857675   1.0000000
B2   B   0.617531502738171   0.806238998181156   0.110996708090744   1.0000000
B2   B   0.761542243418169   0.950214008121459   0.111049567767485   1.0000000
B2   B   0.762562345900256   0.093736541821425   0.111061331368416   1.0000000
B2   B   0.763398813543794   0.236981764000536   0.111025634438621   1.0000000
B2   B   0.764161376903539   0.380231951428963   0.111023977855762   1.0000000
B2   B   0.760979405015856   0.522476410690113   0.111100911446469   1.0000000
B2   B   0.757181285795632   0.661436586441488   0.111070128815889   1.0000000
B2   B   0.759475256086395   0.805821769534334   0.111027774061641   1.0000000
C2   C   0.465334727201285   0.519833834523373   0.110988687668443   1.0000000
C2   C   0.491281634863601   0.451702894457824   0.111067999131823   1.0000000
N2   N   0.952654024238896   0.904651911781873   0.111007825319293   1.0000000
N2   N   0.953712527008607   0.047525262751933   0.111013292017286   1.0000000
N2   N   0.953905211351578   0.190235557933758   0.111039463874811   1.0000000
N2   N   0.953229560271424   0.333096996974899   0.111015689174096   1.0000000
N2   N   0.952048658709579   0.476335738622560   0.110967591157970   1.0000000
N2   N   0.951629585986762   0.619344935311856   0.111003113840526   1.0000000
N2   N   0.951650363837109   0.761860958855363   0.111036681682507   1.0000000
N2   N   0.096152127216599   0.906720882424348   0.110942608419295   1.0000000
N2   N   0.099346561089238   0.051568420341679   0.110987298437231   1.0000000
N2   N   0.098881749196524   0.192857578586102   0.110982660760813   1.0000000
N2   N   0.096423606217289   0.334325137372916   0.110990406320990   1.0000000
N2   N   0.094218702141414   0.476884208586693   0.111022365559369   1.0000000
N2   N   0.094403336452476   0.620072473988457   0.111021844386362   1.0000000
N2   N   0.094978301602585   0.763247725307050   0.110967039942688   1.0000000
N2   N   0.238550563694616   0.906962146280865   0.110970248085858   1.0000000
N2   N   0.240676937211549   0.051551381968650   0.111005405453951   1.0000000
N2   N   0.248472236888736   0.200928574119618   0.111020493773648   1.0000000
N2   N   0.241774554940499   0.337743035863553   0.110973120494243   1.0000000
N2   N   0.236118827211863   0.478106469911359   0.111015237756428   1.0000000
N2   N   0.236681724945954   0.620617515379242   0.111099986336073   1.0000000
N2   N   0.237644298868361   0.763576819972027   0.111070891068889   1.0000000
N2   N   0.381059223170557   0.906091695423821   0.111041505523892   1.0000000
N2   N   0.382042585815430   0.049739418822659   0.111007801975510   1.0000000
N2   N   0.384776663134806   0.195613061741294   0.111060290491265   1.0000000
N2   N   0.403876080638593   0.362947039022510   0.111041193669917   1.0000000
N2   N   0.377758395125467   0.482729092421809   0.110961185567045   1.0000000
N2   N   0.378685096518429   0.621420915347396   0.111041082603367   1.0000000
N2   N   0.380250044205580   0.763309956737772   0.111108462420913   1.0000000
N2   N   0.523614917436944   0.903348520333775   0.111011113763756   1.0000000
N2   N   0.524598246520162   0.046497427825843   0.110977825063337   1.0000000
N2   N   0.526214716164679   0.188607857540348   0.110982121632039   1.0000000
N2   N   0.532876197271560   0.326189347411748   0.110650592214598   1.0000000
N2   N   0.516341821856715   0.610065960626499   0.110976308838819   1.0000000
N2   N   0.522122244022619   0.758950790767786   0.111006713580341   1.0000000
N2   N   0.665777725092047   0.901530139131772   0.110993959704558   1.0000000
N2   N   0.667149688233702   0.045620326664388   0.111001818595474   1.0000000
N2   N   0.668318818031854   0.188764584819167   0.110993828206702   1.0000000
N2   N   0.669757082740966   0.331416457172926   0.110996751208725   1.0000000
N2   N   0.664519190838990   0.473329528196289   0.111092221327610   1.0000000
N2   N   0.657770575831435   0.608505966159485   0.111042905783842   1.0000000
N2   N   0.662517970233950   0.755367563106147   0.110978268420504   1.0000000
N2   N   0.808330808318870   0.901791044586481   0.111017858648213   1.0000000
N2   N   0.809922889909005   0.045821664607417   0.111056224773500   1.0000000
N2   N   0.810688207737570   0.189218090873060   0.111056053427348   1.0000000
N2   N   0.811056223537029   0.332496787608539   0.111009495802930   1.0000000
N2   N   0.809202562205659   0.475618577746376   0.111020903849631   1.0000000
N2   N   0.807423379489871   0.617195309981337   0.111084506691551   1.0000000
N2   N   0.806147908836192   0.757717124334289   0.111042253093054   1.0000000


