data_1
_audit_creation_method   'vasp2cif'
_cell_length_a    17.52789999999977
_cell_length_b    17.52789999999977
_cell_length_c    15.0
_cell_angle_alpha    90.0
_cell_angle_beta    90.0
_cell_angle_gamma    119.99999999999916

_symmetry_space_group_name_H-M    'P 1'
loop_
_atom_site_label
_atom_site_type_symbol
_atom_site_fract_x
_atom_site_fract_y
_atom_site_fract_z
_atom_site_occupancy
B2   B   0.905746755752560   0.953177779003948   0.111017360686160   1.0000000
B2   B   0.904415288699574   0.095585915062493   0.111043861223926   1.0000000
B2   B   0.903952948987392   0.238456207786235   0.111037233887710   1.0000000
B2   B   0.903887341140136   0.381264599158317   0.110997505738287   1.0000000
B2   B   0.904677859177573   0.524035651357463   0.111005266181352   1.0000000
B2   B   0.906946000065673   0.667371244884751   0.111051352110772   1.0000000
B2   B   0.907849909267823   0.811400908363677   0.111037113223885   1.0000000
B2   B   0.048253162648434   0.951747850560485   0.111017749740210   1.0000000
B2   B   0.046823071286490   0.094254248816602   0.111031259571408   1.0000000
B2   B   0.046598888145782   0.237509857544436   0.111011490181569   1.0000000
B2   B   0.047153194183869   0.380536184730057   0.111012543978378   1.0000000
B2   B   0.048335756084271   0.523181615615510   0.110994143514994   1.0000000
B2   B   0.049113312979247   0.666036822110935   0.111033937064848   1.0000000
B2   B   0.049209535192310   0.809083998202094   0.111039541834657   1.0000000
B2   B   0.190917777580969   0.950791974702975   0.111024503073955   1.0000000
B2   B   0.188599357277732   0.092150828867437   0.111039031743074   1.0000000
B2   B   0.188018342081085   0.235280477608544   0.111017915917247   1.0000000
B2   B   0.189591622506499   0.379420348213139   0.111014108713944   1.0000000
B2   B   0.192292603449948   0.522303017701979   0.111011397935028   1.0000000
B2   B   0.192216345528693   0.665211502167728   0.110998537932778   1.0000000
B2   B   0.191818544984339   0.808183263870249   0.111008625935172   1.0000000
B2   B   0.333965643962703   0.950888618860278   0.111026920665956   1.0000000
B2   B   0.332630929131420   0.093055760208292   0.111055650298860   1.0000000
B2   B   0.328245869791153   0.231798520083086   0.110984142587308   1.0000000
B2   B   0.329257331482589   0.376000465180196   0.111036823724895   1.0000000
B2   B   0.337119409225431   0.520743608256874   0.111083588707304   1.0000000
B2   B   0.335721755119591   0.664280169078384   0.111030151711177   1.0000000
B2   B   0.334790383339494   0.807785340944630   0.110994061834079   1.0000000
B2   B   0.476820775921084   0.951666172043994   0.110990030901513   1.0000000
B2   B   0.475967196525075   0.095324707662511   0.111012575817398   1.0000000
B2   B   0.474316994403055   0.238703490295936   0.111059654601438   1.0000000
B2   B   0.464918962741982   0.376334306762173   0.111271734002384   1.0000000
B2   B   0.479258002448056   0.662882117638282   0.111122085108301   1.0000000
B2   B   0.477699020919635   0.807709254408745   0.110995001343950   1.0000000
B2   B   0.619466138846804   0.952848521339119   0.111008882529371   1.0000000
B2   B   0.618738086543286   0.096115329595711   0.110998824279306   1.0000000
B2   B   0.617787319471739   0.239801155539834   0.111065972815989   1.0000000
B2   B   0.616014916588364   0.383986846462979   0.111124231187269   1.0000000
B2   B   0.623665459001492   0.535082160024506   0.111047154145638   1.0000000
B2   B   0.624000284815760   0.670742929808597   0.111056718712490   1.0000000
B2   B   0.620581795845150   0.810409675742835   0.110992279537617   1.0000000
B2   B   0.762491856080506   0.953402683590591   0.110998344409677   1.0000000
B2   B   0.761545925522907   0.096049351367541   0.111038552026854   1.0000000
B2   B   0.760900465630496   0.239102710531989   0.111072781614107   1.0000000
B2   B   0.760201849600424   0.382215921100067   0.111061200031551   1.0000000
B2   B   0.761298509484712   0.525685234974777   0.111043351418108   1.0000000
B2   B   0.768202707895506   0.671755282755443   0.110973210578045   1.0000000
B2   B   0.764719696497350   0.811979259203842   0.110985858320307   1.0000000
N2   N   0.953848376950507   0.905776917820257   0.110990118237677   1.0000000
N2   N   0.952127699243727   0.047873422773568   0.111005834812003   1.0000000
N2   N   0.951521281490936   0.190637734887929   0.111005330601850   1.0000000
N2   N   0.951658146598153   0.333599335102885   0.110979586379715   1.0000000
N2   N   0.952488946877371   0.476352164528226   0.110962159098968   1.0000000
N2   N   0.953788328234305   0.619142141684885   0.111006656157421   1.0000000
N2   N   0.954372860354071   0.762481598061901   0.111023258743426   1.0000000
N2   N   0.096012778805406   0.903989960478325   0.110982584270463   1.0000000
N2   N   0.094224932113769   0.046153330917482   0.110998693951757   1.0000000
N2   N   0.093458050257879   0.189051180508864   0.110991497391798   1.0000000
N2   N   0.094371370426214   0.332627985671243   0.110976708910867   1.0000000
N2   N   0.096274424208273   0.475616590673041   0.110977811711147   1.0000000
N2   N   0.096710233572337   0.618286465721717   0.110974806190867   1.0000000
N2   N   0.096673712906775   0.761143006255395   0.111005329894895   1.0000000
N2   N   0.238860087508988   0.903329045617075   0.110992700573247   1.0000000
N2   N   0.237520814078874   0.045629312773592   0.111004039097294   1.0000000
N2   N   0.234260883643562   0.186219913277480   0.110984042228915   1.0000000
N2   N   0.235054979479571   0.330175066137440   0.110982126272089   1.0000000
N2   N   0.240283833729063   0.474530755471726   0.111003361003328   1.0000000
N2   N   0.240143719718776   0.617503098581197   0.110981464364290   1.0000000
N2   N   0.239553615662384   0.760448859894684   0.110973478431512   1.0000000
N2   N   0.381716029501356   0.903292053113730   0.110967999803005   1.0000000
N2   N   0.380860522965410   0.046213966428554   0.111010991725349   1.0000000
N2   N   0.379090667037562   0.187951042783620   0.110999061814520   1.0000000
N2   N   0.372832525551125   0.324926996709459   0.110963153547297   1.0000000
N2   N   0.383254467695272   0.470482648509452   0.111070380965147   1.0000000
N2   N   0.383803598390965   0.616198482148355   0.111051466684481   1.0000000
N2   N   0.382499159766151   0.759858590739473   0.110976108817571   1.0000000
N2   N   0.524385405724705   0.903727611007203   0.110969144855032   1.0000000
N2   N   0.523649845712521   0.047513219062047   0.110964663237914   1.0000000
N2   N   0.522594382885004   0.191265944603693   0.111016660429650   1.0000000
N2   N   0.519942053828713   0.335304169369172   0.111118590680853   1.0000000
N2   N   0.529517819572208   0.616745921310272   0.111189980596994   1.0000000
N2   N   0.525471083050991   0.759718133847251   0.110983513388514   1.0000000
N2   N   0.667373859065248   0.905630386558601   0.110966033223671   1.0000000
N2   N   0.666402487246419   0.048343805007443   0.110982496605997   1.0000000
N2   N   0.665604244899062   0.191783383571370   0.111014447517193   1.0000000
N2   N   0.664318799156486   0.335683352560861   0.111051427517599   1.0000000
N2   N   0.664697472348933   0.480058930179499   0.111066808631808   1.0000000
N2   N   0.675073526340409   0.627168152180092   0.110940555526240   1.0000000
N2   N   0.669825600400312   0.764945547452113   0.110950988845719   1.0000000
N2   N   0.810950020233576   0.906543630792673   0.110964166362319   1.0000000
N2   N   0.809363545596398   0.048480214421580   0.111004665340164   1.0000000
N2   N   0.808678401058084   0.191323648682537   0.111027158895931   1.0000000
N2   N   0.808219091061618   0.334398214343545   0.111015015406015   1.0000000
N2   N   0.808736111399578   0.477408077782345   0.111008463425010   1.0000000
N2   N   0.812050146829634   0.620911047416358   0.110973858892282   1.0000000
N2   N   0.813781125159509   0.765740299085230   0.110965898025311   1.0000000
P2   P   0.499246681721641   0.500753811182275   0.111346294134613   1.0000000


