data_1
_audit_creation_method   'vasp2cif'
_cell_length_a    17.52789999999977
_cell_length_b    17.52789999999977
_cell_length_c    15.0
_cell_angle_alpha    90.0
_cell_angle_beta    90.0
_cell_angle_gamma    119.99999999999916

_symmetry_space_group_name_H-M    'P 1'
loop_
_atom_site_label
_atom_site_type_symbol
_atom_site_fract_x
_atom_site_fract_y
_atom_site_fract_z
_atom_site_occupancy
B2   B   0.904612791923079   0.952326434355509   0.111017513331296   1.0000000
B2   B   0.904803005606861   0.095290382088692   0.111056815654223   1.0000000
B2   B   0.904793134146008   0.238103412893055   0.111062313560044   1.0000000
B2   B   0.904595764751014   0.380882526575316   0.111007420158426   1.0000000
B2   B   0.904845716113995   0.523743013260159   0.110992540527312   1.0000000
B2   B   0.904904214425950   0.666731898441204   0.111020642851230   1.0000000
B2   B   0.904854980180090   0.809692298575926   0.111037102836719   1.0000000
B2   B   0.047762316171505   0.952585099883842   0.111002701850751   1.0000000
B2   B   0.047838762749422   0.095494049630123   0.111039692232181   1.0000000
B2   B   0.047888750332922   0.238229602818272   0.111048459255740   1.0000000
B2   B   0.047847941853786   0.380918856305515   0.111048946701711   1.0000000
B2   B   0.047761852417634   0.523753036992905   0.111002440485429   1.0000000
B2   B   0.047710646609944   0.666682275865436   0.111004743444859   1.0000000
B2   B   0.047716488987196   0.809596493652128   0.110988328472533   1.0000000
B2   B   0.190511394454879   0.952400099704174   0.110959487634405   1.0000000
B2   B   0.190789139181916   0.095583669538655   0.111022659988496   1.0000000
B2   B   0.191194969057559   0.238652372165328   0.110998260637034   1.0000000
B2   B   0.191211078831516   0.381110645557492   0.110983384430273   1.0000000
B2   B   0.190789962795309   0.523759719134462   0.111037627644920   1.0000000
B2   B   0.190514473682260   0.666661299932650   0.111010731478931   1.0000000
B2   B   0.190548878126679   0.809552833107291   0.110950695225057   1.0000000
B2   B   0.333393232424246   0.952404557437386   0.110989859459994   1.0000000
B2   B   0.333313835001280   0.095183110673057   0.111034598421723   1.0000000
B2   B   0.333904896160208   0.238307468471631   0.111054739038010   1.0000000
B2   B   0.335274875961674   0.381917661558234   0.111048191667965   1.0000000
B2   B   0.333914040129493   0.524147676927872   0.111054795615926   1.0000000
B2   B   0.333324850069070   0.666675287528216   0.111060956483620   1.0000000
B2   B   0.333405441081380   0.809548419866995   0.111025516237049   1.0000000
B2   B   0.476228569580616   0.952398875123456   0.110987637682220   1.0000000
B2   B   0.476194742190718   0.095793980555551   0.110989594270714   1.0000000
B2   B   0.475721609898171   0.239062707318595   0.111032729724515   1.0000000
B2   B   0.475732932562832   0.665217909953348   0.111032193963359   1.0000000
B2   B   0.476221019096056   0.808973984397746   0.111029068466559   1.0000000
B2   B   0.619016913031494   0.952221659070644   0.111025603108107   1.0000000
B2   B   0.618995682559377   0.095370601444476   0.111006462160085   1.0000000
B2   B   0.618799139909308   0.238445329440273   0.111010917813059   1.0000000
B2   B   0.617977491778032   0.381662312287987   0.111011220390233   1.0000000
B2   B   0.620024958953249   0.524308748957335   0.111080397462391   1.0000000
B2   B   0.617978498259667   0.664896710817622   0.111014857507591   1.0000000
B2   B   0.618837292510028   0.808956760002581   0.111003764448710   1.0000000
B2   B   0.761765870841807   0.952215240564468   0.111031624782841   1.0000000
B2   B   0.761880477739602   0.095241627989201   0.111081058076797   1.0000000
B2   B   0.761736788840835   0.238139557207382   0.111072783288932   1.0000000
B2   B   0.761219773589783   0.380926373644092   0.111018813918165   1.0000000
B2   B   0.762194848393863   0.523879736425994   0.111034145729519   1.0000000
B2   B   0.762200630189717   0.666897193066943   0.111028608019415   1.0000000
B2   B   0.761239594995516   0.808911820895446   0.111023890901665   1.0000000
C2   C   0.475617184366412   0.381869218446625   0.111168635827909   1.0000000
C2   C   0.475605082183529   0.522297250049801   0.111189805863070   1.0000000
C2   C   0.519673190362369   0.474141512160389   0.111250870424661   1.0000000
N2   N   0.952481977649486   0.904937746208807   0.111003200493708   1.0000000
N2   N   0.952472702844686   0.047679056280808   0.110976398583665   1.0000000
N2   N   0.952575217785466   0.190586154852315   0.110976734005722   1.0000000
N2   N   0.952469285161669   0.333388464032845   0.110981549846173   1.0000000
N2   N   0.952477949160921   0.476131919918623   0.110962059263761   1.0000000
N2   N   0.952463975064815   0.619018392277281   0.111019419089829   1.0000000
N2   N   0.952464691283543   0.762016394137039   0.111029844716718   1.0000000
N2   N   0.095280627764521   0.904868030794690   0.110985795188603   1.0000000
N2   N   0.095510762027298   0.047922308662712   0.110995434813778   1.0000000
N2   N   0.095817401974616   0.190896065356766   0.110969793762311   1.0000000
N2   N   0.095826789764548   0.333492882715595   0.110966692334139   1.0000000
N2   N   0.095513514172400   0.476158745373969   0.111002384627515   1.0000000
N2   N   0.095282644925333   0.618978200840584   0.111019142161654   1.0000000
N2   N   0.095289805573106   0.761926102100095   0.111001194631510   1.0000000
N2   N   0.238162341731225   0.904818876623624   0.111032007540879   1.0000000
N2   N   0.238108803989055   0.047686421905648   0.111024888683382   1.0000000
N2   N   0.238651199457281   0.191035662128041   0.111008723416034   1.0000000
N2   N   0.239797431031446   0.334176595874574   0.110962585625358   1.0000000
N2   N   0.238662495298940   0.476177110262860   0.111012955217110   1.0000000
N2   N   0.238115592461947   0.618973023242467   0.111051920111094   1.0000000
N2   N   0.238169939249796   0.761897817907577   0.111064367180590   1.0000000
N2   N   0.381050861933453   0.904803352395182   0.111029528548497   1.0000000
N2   N   0.381012380896722   0.047710477607767   0.111010870484460   1.0000000
N2   N   0.380763448495734   0.190256552568121   0.111035176888178   1.0000000
N2   N   0.382625497568762   0.333485887369779   0.111061471403252   1.0000000
N2   N   0.382624500561278   0.477689251753980   0.111056523134103   1.0000000
N2   N   0.380775603785757   0.619056385254905   0.111040796191463   1.0000000
N2   N   0.381031092044685   0.761858234582874   0.111041227942536   1.0000000
N2   N   0.523768989190556   0.904450116404727   0.111005302456915   1.0000000
N2   N   0.523752279315748   0.047880973386955   0.110972143883216   1.0000000
N2   N   0.523632681053424   0.191421469331245   0.110989243199554   1.0000000
N2   N   0.521830399474625   0.334791794761586   0.111038035378256   1.0000000
N2   N   0.521831553031047   0.615598930868720   0.111048179703112   1.0000000
N2   N   0.523661119258492   0.760785219349209   0.111005046267044   1.0000000
N2   N   0.666461919813841   0.904387270866999   0.110982514321500   1.0000000
N2   N   0.666541486146953   0.047568775938888   0.110982903738568   1.0000000
N2   N   0.666432730716386   0.190651701049503   0.110998634357952   1.0000000
N2   N   0.665619800734807   0.333505806601634   0.110978168141039   1.0000000
N2   N   0.667151959457229   0.476497314258304   0.110995336763661   1.0000000
N2   N   0.667159945634906   0.619242224396271   0.110991602118644   1.0000000
N2   N   0.665639295859641   0.760705903472479   0.110978216798949   1.0000000
N2   N   0.809172862228323   0.904387372058585   0.110972633816536   1.0000000
N2   N   0.809470773002755   0.047540791361521   0.110981499067348   1.0000000
N2   N   0.809459985883153   0.190532215699428   0.110998043644315   1.0000000
N2   N   0.809151998805004   0.333379535121575   0.110989194309767   1.0000000
N2   N   0.809612332327661   0.476153622006113   0.111003310096834   1.0000000
N2   N   0.809744216833002   0.619160016220834   0.111024760235189   1.0000000
N2   N   0.809619278812014   0.762053387349454   0.111016696651252   1.0000000


