data_1
_audit_creation_method   'vasp2cif'
_cell_length_a    14.93631414619966
_cell_length_b    14.936314146199727
_cell_length_c    13.341276283792837
_cell_angle_alpha    90.0
_cell_angle_beta    90.0
_cell_angle_gamma    119.99999999999984

_symmetry_space_group_name_H-M    'P 1'
loop_
_atom_site_label
_atom_site_type_symbol
_atom_site_fract_x
_atom_site_fract_y
_atom_site_fract_z
_atom_site_occupancy
As2   As   0.502541373320809   0.417937353327069   0.375000000000000   1.0000000
N2   N   0.111481110645076   0.055733504296895   0.125067620325931   1.0000000
N2   N   0.611482528254013   0.555774045912105   0.124090066384735   1.0000000
N2   N   0.444804446109765   0.055719736782476   0.125056064762995   1.0000000
N2   N   0.944786209601861   0.555724432088748   0.125021123868024   1.0000000
N2   N   0.778145251051613   0.055739292192473   0.124894110287693   1.0000000
N2   N   0.111433870202635   0.722383601767974   0.625050399479169   1.0000000
N2   N   0.444804446109765   0.722418042660628   0.624943935237005   1.0000000
N2   N   0.278138849692791   0.222394050193124   0.625312268175917   1.0000000
N2   N   0.778134330842061   0.722403577743663   0.625044993772035   1.0000000
N2   N   0.611489044259131   0.222391325680904   0.625135759851863   1.0000000
N2   N   0.944828921543321   0.222412840153425   0.625014939895895   1.0000000
N2   N   0.278138343114011   0.722412691053786   0.125001715174031   1.0000000
N2   N   0.111494449915790   0.222413891624553   0.125028245945443   1.0000000
N2   N   0.444829103047914   0.222391758121079   0.124642080696278   1.0000000
N2   N   0.611489044259131   0.722431051911556   0.124864240148148   1.0000000
N2   N   0.944786209601861   0.722395110846434   0.125021123868024   1.0000000
N2   N   0.778166945682290   0.222412013464162   0.124916339429966   1.0000000
N2   N   0.111471261719483   0.889060435389507   0.624976505254213   1.0000000
N2   N   0.444821619202914   0.889077476268136   0.624998459423676   1.0000000
N2   N   0.278138849692791   0.389078132832996   0.625312268175917   1.0000000
N2   N   0.611482528254013   0.389041815675227   0.625909933615265   1.0000000
N2   N   0.778166945682290   0.889088265551454   0.625083660570029   1.0000000
N2   N   0.944824856464283   0.389068869266263   0.625013599965311   1.0000000
N2   N   0.111481110645076   0.389080939681510   0.125067620325931   1.0000000
N2   N   0.278138343114011   0.889058985393543   0.125001715174031   1.0000000
N2   N   0.611492027367049   0.889088164935326   0.124957390093542   1.0000000
N2   N   0.444776749583963   0.389055041458649   0.123970099375983   1.0000000
N2   N   0.944824856464283   0.889089320531347   0.124986400034692   1.0000000
N2   N   0.778134330842061   0.389064086431723   0.124955006227978   1.0000000
N2   N   0.278152490352206   0.555763287996695   0.624925948758284   1.0000000
N2   N   0.111481110645076   0.055733504296895   0.624932379674072   1.0000000
N2   N   0.611482528254013   0.555774045912105   0.625909933615265   1.0000000
N2   N   0.444804446109765   0.055719736782476   0.624943935237005   1.0000000
N2   N   0.944786209601861   0.555724432088748   0.624978876131973   1.0000000
N2   N   0.111471261719483   0.555744159663314   0.125023494745793   1.0000000
N2   N   0.778145251051613   0.055739292192473   0.625105889712295   1.0000000
N2   N   0.278152490352206   0.055722535688845   0.125074051241707   1.0000000
N2   N   0.444829103047914   0.555770678260162   0.124642080696278   1.0000000
N2   N   0.778117423988820   0.555725378661094   0.124995321290714   1.0000000
N2   N   0.611492027367049   0.055737195765055   0.124957390093542   1.0000000
N2   N   0.444829103047914   0.555770678260162   0.625357919303730   1.0000000
N2   N   0.944828921543321   0.055749414723222   0.124985060104105   1.0000000
N2   N   0.278138343114011   0.722412691053786   0.624998284825958   1.0000000
N2   N   0.111494449915790   0.222413891624553   0.624971754054555   1.0000000
N2   N   0.444829103047914   0.222391758121079   0.625357919303730   1.0000000
N2   N   0.611489044259131   0.722431051911556   0.625135759851863   1.0000000
N2   N   0.944786209601861   0.722395110846434   0.624978876131973   1.0000000
N2   N   0.778166945682290   0.222412013464162   0.625083660570029   1.0000000
N2   N   0.111433870202635   0.722383601767974   0.124949600520833   1.0000000
N2   N   0.444804446109765   0.722418042660628   0.125056064762995   1.0000000
N2   N   0.278138849692791   0.222394050193124   0.124687731824084   1.0000000
N2   N   0.778134330842061   0.722403577743663   0.124955006227978   1.0000000
N2   N   0.611489044259131   0.222391325680904   0.124864240148148   1.0000000
N2   N   0.944828921543321   0.222412840153425   0.124985060104105   1.0000000
N2   N   0.111481110645076   0.389080939681510   0.624932379674072   1.0000000
N2   N   0.278138343114011   0.889058985393543   0.624998284825958   1.0000000
N2   N   0.611492027367049   0.889088164935326   0.625042609906466   1.0000000
N2   N   0.444776749583963   0.389055041458649   0.626029900624013   1.0000000
N2   N   0.944824856464283   0.889089320531347   0.625013599965311   1.0000000
N2   N   0.111471261719483   0.889060435389507   0.125023494745793   1.0000000
N2   N   0.778134330842061   0.389064086431723   0.625044993772035   1.0000000
N2   N   0.444821619202914   0.889077476268136   0.125001540576318   1.0000000
N2   N   0.278138849692791   0.389078132832996   0.124687731824084   1.0000000
N2   N   0.278152490352206   0.555763287996695   0.125074051241707   1.0000000
N2   N   0.611482528254013   0.389041815675227   0.124090066384735   1.0000000
N2   N   0.778166945682290   0.889088265551454   0.124916339429966   1.0000000
N2   N   0.944824856464283   0.389068869266263   0.124986400034692   1.0000000
N2   N   0.111471261719483   0.555744159663314   0.624976505254213   1.0000000
N2   N   0.278152490352206   0.055722535688845   0.624925948758284   1.0000000
N2   N   0.778117423988820   0.555725378661094   0.625004678709286   1.0000000
N2   N   0.611492027367049   0.055737195765055   0.625042609906466   1.0000000
N2   N   0.944828921543321   0.055749414723222   0.625014939895895   1.0000000
N2   N   0.059226891426245   0.113255276744621   0.375000000000000   1.0000000
N2   N   0.555696618560283   0.622164666325755   0.375000000000000   1.0000000
N2   N   0.388014625838848   0.105986150409426   0.375000000000000   1.0000000
N2   N   0.884109904002545   0.608721618667932   0.375000000000000   1.0000000
N2   N   0.724336292656973   0.111095909288710   0.375000000000000   1.0000000
N2   N   0.055096832288342   0.777547646159283   0.875000000000000   1.0000000
N2   N   0.388430658577506   0.777548895791884   0.875000000000000   1.0000000
N2   N   0.221784050689922   0.277558692011623   0.875000000000000   1.0000000
N2   N   0.721772623030475   0.777553737173076   0.875000000000000   1.0000000
N2   N   0.555114280421251   0.277554906712144   0.875000000000000   1.0000000
N2   N   0.888450468264799   0.277553182558630   0.875000000000000   1.0000000
N2   N   0.220072931948417   0.776703132640863   0.375000000000000   1.0000000
N2   N   0.059226891426245   0.279304948014957   0.375000000000000   1.0000000
N2   N   0.394693714127464   0.275252537695002   0.375000000000000   1.0000000
N2   N   0.555904593427378   0.782733528052370   0.375000000000000   1.0000000
N2   N   0.887715386635720   0.777744017495327   0.375000000000000   1.0000000
N2   N   0.723595916849261   0.275708436878647   0.375000000000000   1.0000000
N2   N   0.055104964822987   0.944224825232618   0.875000000000000   1.0000000
N2   N   0.388430658577506   0.944215096118971   0.875000000000000   1.0000000
N2   N   0.221771312664641   0.444224320657935   0.875000000000000   1.0000000
N2   N   0.555107079136427   0.444220206234878   0.875000000000000   1.0000000
N2   N   0.721763229360913   0.944219133808871   0.875000000000000   1.0000000
N2   N   0.888440901345949   0.444213196558713   0.875000000000000   1.0000000
N2   N   0.056225321917470   0.444646174080130   0.375000000000000   1.0000000
N2   N   0.220734044393976   0.942602535168718   0.375000000000000   1.0000000
N2   N   0.555872030944768   0.944602682139040   0.375000000000000   1.0000000
N2   N   0.394693714127464   0.452774509765792   0.375000000000000   1.0000000
N2   N   0.891260977025639   0.946510742539470   0.375000000000000   1.0000000
N2   N   0.717720524338766   0.440277912633706   0.375000000000000   1.0000000
N2   N   0.221772692086145   0.610889985404561   0.875000000000000   1.0000000
N2   N   0.055106580363569   0.110883788459626   0.875000000000000   1.0000000
N2   N   0.555114280421251   0.610892707042425   0.875000000000000   1.0000000
N2   N   0.388434627670646   0.110874396786707   0.875000000000000   1.0000000
N2   N   0.888444393209519   0.610888863271439   0.875000000000000   1.0000000
N2   N   0.052934125392433   0.610076321981537   0.375000000000000   1.0000000
N2   N   0.721763229360913   0.110877428885367   0.875000000000000   1.0000000
N2   N   0.224939222336490   0.112049587826882   0.375000000000000   1.0000000
N2   N   0.388014625838848   0.615361808762770   0.375000000000000   1.0000000
N2   N   0.717720524338766   0.610775945038400   0.375000000000000   1.0000000
N2   N   0.555904593427378   0.106504398708339   0.375000000000000   1.0000000
N2   N   0.388434627670646   0.610893564217283   0.875000000000000   1.0000000
N2   N   0.892081209517919   0.112707271425636   0.375000000000000   1.0000000
N2   N   0.221759146526343   0.777546239929840   0.875000000000000   1.0000000
N2   N   0.055106580363569   0.277556125237273   0.875000000000000   1.0000000
N2   N   0.388440175810072   0.277552513498643   0.875000000000000   1.0000000
N2   N   0.555099210189827   0.777550983086790   0.875000000000000   1.0000000
N2   N   0.888440901345949   0.777561038120565   0.875000000000000   1.0000000
N2   N   0.721772623030475   0.277552219190760   0.875000000000000   1.0000000
N2   N   0.052934125392433   0.776191136744242   0.375000000000000   1.0000000
N2   N   0.387676559652040   0.778702661497762   0.375000000000000   1.0000000
N2   N   0.228001147611484   0.280667240472414   0.375000000000000   1.0000000
N2   N   0.723595916849261   0.781220813303944   0.375000000000000   1.0000000
N2   N   0.555696618560283   0.266865285567865   0.375000000000000   1.0000000
N2   N   0.891260977025639   0.278083567819508   0.375000000000000   1.0000000
N2   N   0.055104964822987   0.444213472923695   0.875000000000000   1.0000000
N2   N   0.221772692086145   0.944216040014915   0.875000000000000   1.0000000
N2   N   0.555106831671356   0.944220082502346   0.875000000000000   1.0000000
N2   N   0.388440175810072   0.444220995644762   0.875000000000000   1.0000000
N2   N   0.888450468264799   0.944230619039527   0.875000000000000   1.0000000
N2   N   0.056225321917470   0.944912481170663   0.375000000000000   1.0000000
N2   N   0.721774676080393   0.444217062296159   0.875000000000000   1.0000000
N2   N   0.387676559652040   0.942307231487611   0.375000000000000   1.0000000
N2   N   0.224939222336490   0.446222967842940   0.375000000000000   1.0000000
N2   N   0.220734044393976   0.611464842558595   0.375000000000000   1.0000000
N2   N   0.724336292656973   0.946573716701610   0.375000000000000   1.0000000
N2   N   0.887715386635720   0.443304702473736   0.375000000000000   1.0000000
N2   N   0.055096832288342   0.610882519462398   0.875000000000000   1.0000000
N2   N   0.221771312664641   0.110880325340033   0.875000000000000   1.0000000
N2   N   0.721774676080393   0.610890947117567   0.875000000000000   1.0000000
N2   N   0.555099210189827   0.110881560436373   0.875000000000000   1.0000000
N2   N   0.888433027699622   0.110883180516476   0.875000000000000   1.0000000
B2   B   0.113649217342492   0.056706015205667   0.375000000000000   1.0000000
B2   B   0.607328898697892   0.566626163824405   0.375000000000000   1.0000000
B2   B   0.444446598404819   0.052193824589245   0.375000000000000   1.0000000
B2   B   0.941555958084696   0.554423477393648   0.375000000000000   1.0000000
B2   B   0.780858960969889   0.057096147151614   0.375000000000000   1.0000000
B2   B   0.110591093984486   0.721962213658905   0.875000000000000   1.0000000
B2   B   0.443940423278705   0.721970180641132   0.875000000000000   1.0000000
B2   B   0.277364817094913   0.222055488015796   0.875000000000000   1.0000000
B2   B   0.777285375232363   0.721982780045472   0.875000000000000   1.0000000
B2   B   0.610698851345472   0.222062744191175   0.875000000000000   1.0000000
B2   B   0.944030053321530   0.222056721666370   0.875000000000000   1.0000000
B2   B   0.276440182649816   0.722248084845960   0.375000000000000   1.0000000
B2   B   0.116233722934436   0.224783528133885   0.375000000000000   1.0000000
B2   B   0.444294230552630   0.215469372913059   0.375000000000000   1.0000000
B2   B   0.612945315784785   0.730546338734058   0.375000000000000   1.0000000
B2   B   0.941555958084696   0.720465814024363   0.375000000000000   1.0000000
B2   B   0.780383310407853   0.221852016572864   0.375000000000000   1.0000000
B2   B   0.110669963824015   0.888670679272339   0.875000000000000   1.0000000
B2   B   0.443999093292363   0.888666213312840   0.875000000000000   1.0000000
B2   B   0.277364817094913   0.388642662412445   0.875000000000000   1.0000000
B2   B   0.610692296997972   0.388631688814800   0.875000000000000   1.0000000
B2   B   0.777343876711956   0.888676662092759   0.875000000000000   1.0000000
B2   B   0.944040746310827   0.388629074162539   0.875000000000000   1.0000000
B2   B   0.113649217342492   0.390276535470154   0.375000000000000   1.0000000
B2   B   0.276440182649816   0.887525431137193   0.375000000000000   1.0000000
B2   B   0.612985170949279   0.892147675598805   0.375000000000000   1.0000000
B2   B   0.945107707468985   0.889534725811487   0.375000000000000   1.0000000
B2   B   0.776506407670574   0.386760965358605   0.375000000000000   1.0000000
B2   B   0.277363319571623   0.555398904068792   0.875000000000000   1.0000000
B2   B   0.110624039304526   0.055312579037991   0.875000000000000   1.0000000
B2   B   0.610692296997972   0.555393941516496   0.875000000000000   1.0000000
B2   B   0.443940423278705   0.055303575970925   0.875000000000000   1.0000000
B2   B   0.944024714738717   0.555381735024577   0.875000000000000   1.0000000
B2   B   0.109764552884492   0.555526410320758   0.375000000000000   1.0000000
B2   B   0.777269755591243   0.055301544462289   0.875000000000000   1.0000000
B2   B   0.277361182019838   0.053479205829197   0.375000000000000   1.0000000
B2   B   0.444294230552630   0.562158190972908   0.375000000000000   1.0000000
B2   B   0.771918126746870   0.552625730040103   0.375000000000000   1.0000000
B2   B   0.612985170949279   0.054170828683788   0.375000000000000   1.0000000
B2   B   0.444003765021124   0.555337201533590   0.875000000000000   1.0000000
B2   B   0.948033444248110   0.057673237225817   0.375000000000000   1.0000000
B2   B   0.277350033256773   0.721966818410447   0.875000000000000   1.0000000
B2   B   0.110680766272725   0.222007049803025   0.875000000000000   1.0000000
B2   B   0.444003765021124   0.221999896820851   0.875000000000000   1.0000000
B2   B   0.610698851345472   0.721969440487615   0.875000000000000   1.0000000
B2   B   0.944024714738717   0.721976313047488   0.875000000000000   1.0000000
B2   B   0.777343876711956   0.222000547952538   0.875000000000000   1.0000000
B2   B   0.108794225284041   0.721063779308703   0.375000000000000   1.0000000
B2   B   0.444446598404819   0.725586107148919   0.375000000000000   1.0000000
B2   B   0.283790966573472   0.224787755352323   0.375000000000000   1.0000000
B2   B   0.776506407670574   0.723078775645295   0.375000000000000   1.0000000
B2   B   0.612945315784785   0.215732310384052   0.375000000000000   1.0000000
B2   B   0.948033444248110   0.223693540355640   0.375000000000000   1.0000000
B2   B   0.110624039304526   0.388644793599869   0.875000000000000   1.0000000
B2   B   0.277350033256773   0.888716548179638   0.875000000000000   1.0000000
B2   B   0.610690862938504   0.888720689803253   0.875000000000000   1.0000000
B2   B   0.443928836758213   0.388631085045784   0.875000000000000   1.0000000
B2   B   0.944040746310827   0.888745005481613   0.875000000000000   1.0000000
B2   B   0.109764552884492   0.887571475897061   0.375000000000000   1.0000000
B2   B   0.777285375232363   0.388635928520217   0.875000000000000   1.0000000
B2   B   0.444429951606341   0.888881642469816   0.375000000000000   1.0000000
B2   B   0.283790966573472   0.392336544554477   0.375000000000000   1.0000000
B2   B   0.277361182019838   0.557215309523972   0.375000000000000   1.0000000
B2   B   0.607328898697892   0.374036068206812   0.375000000000000   1.0000000
B2   B   0.780383310407853   0.891864627168321   0.375000000000000   1.0000000
B2   B   0.945107707468985   0.388906314990818   0.375000000000000   1.0000000
B2   B   0.110669963824015   0.555332617885000   0.875000000000000   1.0000000
B2   B   0.277363319571623   0.055297748836162   0.875000000000000   1.0000000
B2   B   0.777338501152644   0.555335917242970   0.875000000000000   1.0000000
B2   B   0.610690862938504   0.055303506468576   0.875000000000000   1.0000000
B2   B   0.944030053321530   0.055306664988488   0.875000000000000   1.0000000
B2   B   0.055917750695580   0.111252256778106   0.125069929338528   1.0000000
B2   B   0.555953576067661   0.611346923904179   0.124503823678469   1.0000000
B2   B   0.389216101893886   0.111217273410598   0.124981387577367   1.0000000
B2   B   0.889310520611487   0.611321926972418   0.125046925866145   1.0000000
B2   B   0.722569391466728   0.111230928439996   0.124918252137585   1.0000000
B2   B   0.055878239415055   0.777895220504248   0.625009362515916   1.0000000
B2   B   0.389213841966217   0.777900016512593   0.624968962901229   1.0000000
B2   B   0.222653496094907   0.277993414714126   0.625111920995244   1.0000000
B2   B   0.722564758015280   0.777917610509905   0.625113675519133   1.0000000
B2   B   0.555953576067661   0.277939985496826   0.625496176321537   1.0000000
B2   B   0.889329129060015   0.277989023935248   0.625044696493384   1.0000000
B2   B   0.222554745410109   0.777944039371728   0.124970848180643   1.0000000
B2   B   0.055917750695580   0.277998827250807   0.125069929338528   1.0000000
B2   B   0.389162824553361   0.277922108998389   0.124588254028692   1.0000000
B2   B   0.555905823675336   0.777968581050840   0.124973261948326   1.0000000
B2   B   0.889244908515840   0.777966188701025   0.124989254467185   1.0000000
B2   B   0.722564758015280   0.277980480838692   0.124886324480882   1.0000000
B2   B   0.055901857700605   0.944674217162280   0.624950685117833   1.0000000
B2   B   0.389213841966217   0.944647158786974   0.624968962901229   1.0000000
B2   B   0.222578532992946   0.444615653204366   0.624960667425100   1.0000000
B2   B   0.555902742861338   0.444618038097337   0.626006127810369   1.0000000
B2   B   0.722569391466728   0.944671796360063   0.625081747862401   1.0000000
B2   B   0.889244908515840   0.444612053148167   0.625010745532822   1.0000000
B2   B   0.055901857700605   0.444560973871658   0.125049314882176   1.0000000
B2   B   0.222638800856674   0.944650733105846   0.125062544098983   1.0000000
B2   B   0.555979113710528   0.944656223521928   0.124980919645792   1.0000000
B2   B   0.389162824553361   0.444574048888315   0.124588254028692   1.0000000
B2   B   0.889329129060015   0.944673438458086   0.124955303506618   1.0000000
B2   B   0.722548321050797   0.444546132168687   0.124663039166004   1.0000000
B2   B   0.222638800856674   0.611321401084160   0.624937455901013   1.0000000
B2   B   0.055917750695580   0.111252256778106   0.624930070661473   1.0000000
B2   B   0.555953576067661   0.611346923904179   0.625496176321537   1.0000000
B2   B   0.389216101893886   0.111217273410598   0.625018612422624   1.0000000
B2   B   0.889310520611487   0.611321926972418   0.624953074133841   1.0000000
B2   B   0.055878239415055   0.611316352244129   0.124990637484071   1.0000000
B2   B   0.722569391466728   0.111230928439996   0.625081747862401   1.0000000
B2   B   0.222578532992946   0.111296213121916   0.125039332574896   1.0000000
B2   B   0.389216101893886   0.611332161816632   0.124981387577367   1.0000000
B2   B   0.722548321050797   0.611335522215475   0.124663039166004   1.0000000
B2   B   0.555905823675336   0.111270575957830   0.124973261948326   1.0000000
B2   B   0.389216101893886   0.611332161816641   0.625018612422624   1.0000000
B2   B   0.889256731219790   0.111295032276570   0.124955271488679   1.0000000
B2   B   0.222554745410109   0.777944039371728   0.625029151819340   1.0000000
B2   B   0.055917750695580   0.277998827250807   0.624930070661473   1.0000000
B2   B   0.389162824553361   0.277922108998389   0.625411745971312   1.0000000
B2   B   0.555905823675336   0.777968581050840   0.625026738051664   1.0000000
B2   B   0.889244908515840   0.777966188701025   0.625010745532822   1.0000000
B2   B   0.722564758015280   0.277980480838692   0.625113675519133   1.0000000
B2   B   0.055878239415055   0.777895220504248   0.124990637484071   1.0000000
B2   B   0.389213841966217   0.777900016512593   0.125031037098774   1.0000000
B2   B   0.222653496094914   0.277993414714126   0.124888079004744   1.0000000
B2   B   0.722564758015280   0.777917610509905   0.124886324480882   1.0000000
B2   B   0.555953576067661   0.277939985496826   0.124503823678469   1.0000000
B2   B   0.889329129060015   0.277989023935248   0.124955303506618   1.0000000
B2   B   0.055901857700605   0.444560973871655   0.624950685117833   1.0000000
B2   B   0.222638800856674   0.944650733105846   0.624937455901013   1.0000000
B2   B   0.555979113710528   0.944656223521928   0.625019080354204   1.0000000
B2   B   0.389162824553361   0.444574048888315   0.625411745971312   1.0000000
B2   B   0.889329129060015   0.944673438458086   0.625044696493384   1.0000000
B2   B   0.055901857700605   0.944674217162280   0.125049314882176   1.0000000
B2   B   0.722548321050797   0.444546132168687   0.625336960833998   1.0000000
B2   B   0.389213841966217   0.944647158786974   0.125031037098774   1.0000000
B2   B   0.222578532992946   0.444615653204366   0.125039332574896   1.0000000
B2   B   0.222638800856674   0.611321401084160   0.125062544098983   1.0000000
B2   B   0.555902742861338   0.444618038097337   0.123993872189639   1.0000000
B2   B   0.722569391466728   0.944671796360063   0.124918252137585   1.0000000
B2   B   0.889244908515840   0.444612053148167   0.124989254467185   1.0000000
B2   B   0.055878239415055   0.611316352244129   0.625009362515916   1.0000000
B2   B   0.222578532992946   0.111296213121916   0.624960667425100   1.0000000
B2   B   0.722548321050797   0.611335522215475   0.625336960833998   1.0000000
B2   B   0.555905823675336   0.111270575957830   0.625026738051664   1.0000000
B2   B   0.889256731219790   0.111295032276570   0.625044728511315   1.0000000


