data_1
_audit_creation_method   'vasp2cif'
_cell_length_a    17.52789999999977
_cell_length_b    17.52789999999977
_cell_length_c    15.0
_cell_angle_alpha    90.0
_cell_angle_beta    90.0
_cell_angle_gamma    119.99999999999916

_symmetry_space_group_name_H-M    'P 1'
loop_
_atom_site_label
_atom_site_type_symbol
_atom_site_fract_x
_atom_site_fract_y
_atom_site_fract_z
_atom_site_occupancy
Ga2   Ga   0.490316044800625   0.509685357116371   0.111071173040666   1.0000000
B2   B   0.906016019076534   0.952942362850457   0.111013835870414   1.0000000
B2   B   0.904804019309367   0.095198001886630   0.111030150059812   1.0000000
B2   B   0.904500707436353   0.237987379114373   0.111034670171166   1.0000000
B2   B   0.904895148058794   0.380935833068478   0.111005549641116   1.0000000
B2   B   0.905918285605391   0.523967500228216   0.111060862881491   1.0000000
B2   B   0.906815782343734   0.667126597782765   0.111095052020289   1.0000000
B2   B   0.906755639296482   0.810186098964376   0.111046750960896   1.0000000
B2   B   0.048258850564185   0.951743170631819   0.111003509848363   1.0000000
B2   B   0.047059658345546   0.093986002119463   0.111013835870414   1.0000000
B2   B   0.046677174725520   0.237200274734217   0.110989553092062   1.0000000
B2   B   0.047017786644021   0.380513422554766   0.111013088213653   1.0000000
B2   B   0.048041426810603   0.523571475604363   0.111027419379544   1.0000000
B2   B   0.048855762661595   0.666430761894213   0.111072545214690   1.0000000
B2   B   0.048848816354250   0.809192577308123   0.111054211235218   1.0000000
B2   B   0.190809443887881   0.951153204841753   0.111054211235218   1.0000000
B2   B   0.189815922231627   0.093246381899515   0.111046750960896   1.0000000
B2   B   0.187719182350438   0.234831402085373   0.110998072628891   1.0000000
B2   B   0.188506691522840   0.379519831215223   0.110993002812425   1.0000000
B2   B   0.190149900169549   0.523105766645575   0.111051766151466   1.0000000
B2   B   0.191365664627092   0.666048274015522   0.111052505323360   1.0000000
B2   B   0.191290507786389   0.808711513409615   0.111012396167567   1.0000000
B2   B   0.333571259302786   0.951146258534409   0.111072545214690   1.0000000
B2   B   0.332875423414231   0.093186238852262   0.111095052020289   1.0000000
B2   B   0.331116732488196   0.234141385784493   0.111006469185517   1.0000000
B2   B   0.326754957938810   0.376038185902364   0.110990488653843   1.0000000
B2   B   0.332146267176156   0.522029395823928   0.111033029649449   1.0000000
B2   B   0.334285694796641   0.665716326400358   0.111071525030218   1.0000000
B2   B   0.333953747181477   0.808636356568913   0.111052505323360   1.0000000
B2   B   0.476430545592636   0.951960594385401   0.111027419379544   1.0000000
B2   B   0.476034520968783   0.094083735590606   0.111060862881491   1.0000000
B2   B   0.475315142936556   0.235539883650841   0.111039956150199   1.0000000
B2   B   0.470752086523966   0.370972721678248   0.111018170347227   1.0000000
B2   B   0.477972625373071   0.667855754020843   0.111033029649449   1.0000000
B2   B   0.476896254551423   0.809852121026455   0.111051766151466   1.0000000
B2   B   0.619488598641238   0.952984234551983   0.111013088213653   1.0000000
B2   B   0.619066188127526   0.095106873137203   0.111005549641116   1.0000000
B2   B   0.619024966707175   0.237473136711305   0.111001217504611   1.0000000
B2   B   0.619780750887457   0.380221270308547   0.111012773340874   1.0000000
B2   B   0.629029299517755   0.529249934673032   0.111018170347227   1.0000000
B2   B   0.623963835293640   0.673247063258187   0.110990488653843   1.0000000
B2   B   0.620482189980780   0.811495329673163   0.110993002812425   1.0000000
B2   B   0.762801746461787   0.953324846470483   0.110989553092062   1.0000000
B2   B   0.762014642081631   0.095501313759643   0.111034670171166   1.0000000
B2   B   0.761920654624905   0.238081366571099   0.111039639196567   1.0000000
B2   B   0.762528884484698   0.380977054488829   0.111001217504611   1.0000000
B2   B   0.764462137545163   0.524686878260443   0.111039956150199   1.0000000
B2   B   0.765860635411512   0.668885288708802   0.111006469185517   1.0000000
B2   B   0.765170619110631   0.812282838845566   0.110998072628891   1.0000000
N2   N   0.953327772172239   0.904839857024424   0.110993956223924   1.0000000
N2   N   0.952510299533407   0.047491102384597   0.111003189849043   1.0000000
N2   N   0.951894908341857   0.190181467178374   0.111003980497639   1.0000000
N2   N   0.951949681796967   0.333122710560561   0.110999175891591   1.0000000
N2   N   0.952637162029062   0.476058423897793   0.111000531996995   1.0000000
N2   N   0.953328008194171   0.618926280701857   0.111084917138583   1.0000000
N2   N   0.953546162273718   0.761852474349418   0.111063981808657   1.0000000
N2   N   0.095856195219852   0.904145206698147   0.111007776231997   1.0000000
N2   N   0.095161544893573   0.046673629745766   0.110993956223924   1.0000000
N2   N   0.093717309200640   0.188705970303571   0.110976607603029   1.0000000
N2   N   0.093967586546185   0.332313306033872   0.110972903893543   1.0000000
N2   N   0.095034326641205   0.475636154817238   0.111013381575457   1.0000000
N2   N   0.096001907338085   0.618626580078384   0.111033223227039   1.0000000
N2   N   0.096102509406941   0.761415146510267   0.111016670428163   1.0000000
N2   N   0.238586255407739   0.903898892511058   0.111016670428163   1.0000000
N2   N   0.238148927568587   0.046455239644288   0.111063981808657   1.0000000
N2   N   0.237041309265174   0.188504134937477   0.110997760307849   1.0000000
N2   N   0.233894445971876   0.329209913654421   0.110970619976419   1.0000000
N2   N   0.236941680935309   0.474807273342481   0.111009925900507   1.0000000
N2   N   0.238868426914204   0.618283968058592   0.111051353530652   1.0000000
N2   N   0.238831128790683   0.761170273127322   0.111018422623813   1.0000000
N2   N   0.381374821839615   0.903999494579913   0.111033223227039   1.0000000
N2   N   0.381075121216143   0.046673393723834   0.111084917138583   1.0000000
N2   N   0.380688394132246   0.189127544486828   0.111035576653498   1.0000000
N2   N   0.378940448912679   0.330881917674937   0.110975007207841   1.0000000
N2   N   0.372771043614648   0.468339979199506   0.110996211458189   1.0000000
N2   N   0.382237747284214   0.617763654633786   0.111035055921484   1.0000000
N2   N   0.381717433859405   0.761132975003801   0.111051353530652   1.0000000
N2   N   0.524365247099759   0.904967075276794   0.111013381575457   1.0000000
N2   N   0.523942978019203   0.047364239888944   0.111000531996995   1.0000000
N2   N   0.523761751917486   0.189978393914498   0.111014559343458   1.0000000
N2   N   0.523896088030358   0.333094701831770   0.111002345506445   1.0000000
N2   N   0.531661422717491   0.627230358303352   0.110996211458189   1.0000000
N2   N   0.525194128574516   0.763059720982697   0.111009925900507   1.0000000
N2   N   0.667688095883124   0.906033815371814   0.110972903893543   1.0000000
N2   N   0.666878691356437   0.048051720121039   0.110999175891591   1.0000000
N2   N   0.666573129620372   0.190595405962480   0.110998364641974   1.0000000
N2   N   0.666553375431263   0.333448026485733   0.110976246170054   1.0000000
N2   N   0.666906700085226   0.476105313886638   0.111002345506445   1.0000000
N2   N   0.669119484242060   0.621060953005320   0.110975007207841   1.0000000
N2   N   0.670791488262576   0.766106955946130   0.110970619976419   1.0000000
N2   N   0.811295431614428   0.906284092717359   0.110976607603029   1.0000000
N2   N   0.809819934739624   0.048106493576149   0.111003980497639   1.0000000
N2   N   0.809353176916531   0.190648225001468   0.111035445043567   1.0000000
N2   N   0.809405995955517   0.333428272296624   0.110998364641974   1.0000000
N2   N   0.810023008003501   0.476239649999511   0.111014559343458   1.0000000
N2   N   0.810873857431172   0.619313007785751   0.111035576653498   1.0000000
N2   N   0.811497266980523   0.762960092652832   0.110997760307849   1.0000000


