data_1
_audit_creation_method   'vasp2cif'
_cell_length_a    17.52789999999977
_cell_length_b    17.52789999999977
_cell_length_c    15.0
_cell_angle_alpha    90.0
_cell_angle_beta    90.0
_cell_angle_gamma    119.99999999999916

_symmetry_space_group_name_H-M    'P 1'
loop_
_atom_site_label
_atom_site_type_symbol
_atom_site_fract_x
_atom_site_fract_y
_atom_site_fract_z
_atom_site_occupancy
B2   B   0.904646967936632   0.952276434817081   0.111011360005800   1.0000000
B2   B   0.904722362951683   0.095261506444779   0.111055372908612   1.0000000
B2   B   0.904672658325103   0.238138051359714   0.111058324932826   1.0000000
B2   B   0.904196493951193   0.380880917514969   0.110994043475013   1.0000000
B2   B   0.904729495063214   0.523713535860783   0.111014726775406   1.0000000
B2   B   0.904651655200678   0.666349380274390   0.111069913755245   1.0000000
B2   B   0.905161145675223   0.809803301806806   0.111055370102791   1.0000000
B2   B   0.047462304139006   0.952128465926016   0.111006582145784   1.0000000
B2   B   0.047343784587947   0.094886681230734   0.111013208005119   1.0000000
B2   B   0.047713253837986   0.238110720846752   0.111008286013536   1.0000000
B2   B   0.047538307033062   0.380991385815563   0.111017964670046   1.0000000
B2   B   0.047256634295156   0.523778791012346   0.111021901736354   1.0000000
B2   B   0.047468119375049   0.666671383863053   0.111024061282668   1.0000000
B2   B   0.047524551352606   0.809391377782594   0.110993137817685   1.0000000
B2   B   0.190402648620642   0.952148847411837   0.110998156737390   1.0000000
B2   B   0.189861705996711   0.094227432691381   0.111064361127560   1.0000000
B2   B   0.190094264199532   0.237218886796085   0.111010089010339   1.0000000
B2   B   0.191125188131591   0.381220164161701   0.110963135764215   1.0000000
B2   B   0.189881583119239   0.524073963024418   0.111064707339725   1.0000000
B2   B   0.190121256490791   0.666910951378025   0.111086517591095   1.0000000
B2   B   0.190340403965901   0.809583072573965   0.110995504324266   1.0000000
B2   B   0.333333047538285   0.952325353737270   0.111027143992735   1.0000000
B2   B   0.333557366799323   0.094704309872443   0.111108621381578   1.0000000
B2   B   0.332132913088648   0.235140849040622   0.111072789862759   1.0000000
B2   B   0.333613352083186   0.377664125554270   0.110892004598898   1.0000000
B2   B   0.332662496582566   0.526530160374896   0.110890661039405   1.0000000
B2   B   0.332956499754203   0.668064025526882   0.111122000654321   1.0000000
B2   B   0.333255697309208   0.810071678546120   0.111097617001638   1.0000000
B2   B   0.476341697118590   0.952511515761096   0.111020089930102   1.0000000
B2   B   0.476331504597473   0.095135609982634   0.111016749580612   1.0000000
B2   B   0.476991673532433   0.238183681811492   0.111078372575873   1.0000000
B2   B   0.474366378912513   0.378127867457430   0.110965342757239   1.0000000
B2   B   0.475820280685766   0.666588089043458   0.111064562867590   1.0000000
B2   B   0.476297878723178   0.809690527611033   0.111096392066839   1.0000000
B2   B   0.619159240993290   0.952613721446795   0.111018084184237   1.0000000
B2   B   0.619153845768503   0.095802776794423   0.110989375030188   1.0000000
B2   B   0.618825072099457   0.238931800623067   0.111009208439760   1.0000000
B2   B   0.622251196085467   0.525423204112682   0.110994947485426   1.0000000
B2   B   0.619592186826663   0.666206777971886   0.111040126849501   1.0000000
B2   B   0.619135101632015   0.809490157877925   0.111009710436065   1.0000000
B2   B   0.761883974283385   0.952408534237153   0.111001151411610   1.0000000
B2   B   0.761902044190360   0.095385093550125   0.111057104172147   1.0000000
B2   B   0.761754457076633   0.238256508912932   0.111042409593309   1.0000000
B2   B   0.761036743106152   0.381176595420928   0.111010647593449   1.0000000
B2   B   0.761754315043839   0.522947036582728   0.111067081227549   1.0000000
B2   B   0.763472257539451   0.667677516872230   0.111071170462713   1.0000000
B2   B   0.761935021064463   0.809478563297513   0.111004209132537   1.0000000
C2   C   0.384979195154490   0.478844239212542   0.110676147900714   1.0000000
C2   C   0.477615108421519   0.525670516533693   0.110937759874605   1.0000000
C2   C   0.522603933205551   0.478984136001415   0.110865367335968   1.0000000
C2   C   0.618859452847261   0.381216437646642   0.111350068906592   1.0000000
N2   N   0.952396137916645   0.904785678167709   0.111009419820954   1.0000000
N2   N   0.952146725036073   0.047452463233152   0.111009579370182   1.0000000
N2   N   0.952390272115373   0.190561703314828   0.111038127814517   1.0000000
N2   N   0.952095403215489   0.333357769554954   0.111000264816894   1.0000000
N2   N   0.952124409140080   0.476055100274321   0.110968337777807   1.0000000
N2   N   0.952320239952429   0.618945940247264   0.111022836375693   1.0000000
N2   N   0.952256553643290   0.761680783841009   0.111038317290583   1.0000000
N2   N   0.095125577051741   0.904565802729445   0.110962167058069   1.0000000
N2   N   0.094797330637586   0.047079836485521   0.111007100153989   1.0000000
N2   N   0.094925668634068   0.190070106215746   0.110989503447279   1.0000000
N2   N   0.095598734848225   0.333525942583173   0.110984336201078   1.0000000
N2   N   0.094780089714248   0.476230602811629   0.111026722441911   1.0000000
N2   N   0.094953563651177   0.619059783353862   0.111029288048605   1.0000000
N2   N   0.095127897175346   0.761864348929311   0.110971707421888   1.0000000
N2   N   0.238079684428350   0.904691654983055   0.110975338662122   1.0000000
N2   N   0.238132589748347   0.047243291607088   0.111054070715912   1.0000000
N2   N   0.237125839680610   0.188938002224593   0.111046967071372   1.0000000
N2   N   0.238307246807930   0.332503333367049   0.110944384208484   1.0000000
N2   N   0.237613891579256   0.476869325105651   0.110965558374398   1.0000000
N2   N   0.237760940015507   0.619497150223077   0.111101018313767   1.0000000
N2   N   0.237986155312260   0.762126402675672   0.111046297093138   1.0000000
N2   N   0.381091063562861   0.905042105970301   0.111032820142855   1.0000000
N2   N   0.381105327861896   0.047301158667722   0.111035773824790   1.0000000
N2   N   0.381496221522572   0.189743369762479   0.111093728557700   1.0000000
N2   N   0.379636298272185   0.328920045116210   0.110998129399691   1.0000000
N2   N   0.380694669433077   0.621003861099390   0.111034913390890   1.0000000
N2   N   0.381021182895012   0.762849591595522   0.111117884272586   1.0000000
N2   N   0.523971414734098   0.904871900639586   0.111028446856869   1.0000000
N2   N   0.524015288981704   0.047693695396380   0.110964080942662   1.0000000
N2   N   0.523906677484579   0.190201435737711   0.111038190303849   1.0000000
N2   N   0.525774196245288   0.333918892082472   0.111028835398951   1.0000000
N2   N   0.523742755010407   0.618517059338724   0.111019479484203   1.0000000
N2   N   0.523941993729798   0.761794567675583   0.111052139540492   1.0000000
N2   N   0.666661747601023   0.904778743203149   0.110981683272218   1.0000000
N2   N   0.666700031812935   0.047973205519517   0.110996927957885   1.0000000
N2   N   0.666686655381175   0.191376478868830   0.110983684006811   1.0000000
N2   N   0.665224037878650   0.334771696490609   0.110990909653803   1.0000000
N2   N   0.666415807066900   0.474198595610315   0.111031239271786   1.0000000
N2   N   0.668843060548616   0.620076294922871   0.111036354433029   1.0000000
N2   N   0.666505277676832   0.761509933701963   0.110988053401670   1.0000000
N2   N   0.809373801911768   0.904663210727260   0.110975055644303   1.0000000
N2   N   0.809457528024046   0.047664625416209   0.111036021272884   1.0000000
N2   N   0.809421791760259   0.190612315695661   0.111057756795023   1.0000000
N2   N   0.808613285584580   0.333327507525744   0.110987523946665   1.0000000
N2   N   0.809758202097365   0.476146303233537   0.111037086124511   1.0000000
N2   N   0.809293672089148   0.618513624661563   0.111062832051308   1.0000000
N2   N   0.810198210509361   0.762491961698217   0.111035463706509   1.0000000


