data_1
_audit_creation_method   'vasp2cif'
_cell_length_a    17.52789999999977
_cell_length_b    17.52789999999977
_cell_length_c    15.0
_cell_angle_alpha    90.0
_cell_angle_beta    90.0
_cell_angle_gamma    119.99999999999916

_symmetry_space_group_name_H-M    'P 1'
loop_
_atom_site_label
_atom_site_type_symbol
_atom_site_fract_x
_atom_site_fract_y
_atom_site_fract_z
_atom_site_occupancy
Al2   Al   0.532465226887504   0.631459088500985   0.111007230018961   1.0000000
B2   B   0.909416570780717   0.955599514993594   0.110970300427984   1.0000000
B2   B   0.904241095162554   0.094805294008051   0.111027342981150   1.0000000
B2   B   0.902736824978519   0.236633285482094   0.111047426796509   1.0000000
B2   B   0.903541136422830   0.379753699679899   0.111004583736800   1.0000000
B2   B   0.907611514578275   0.524081201331244   0.111025663157844   1.0000000
B2   B   0.913382010311074   0.669416314264435   0.110994835095645   1.0000000
B2   B   0.913782702855901   0.814745673290916   0.110981530869327   1.0000000
B2   B   0.050968509884129   0.953938869276005   0.111022378009857   1.0000000
B2   B   0.047189823514553   0.094345609181747   0.111010946245318   1.0000000
B2   B   0.044046225582448   0.235587011327449   0.110961506173161   1.0000000
B2   B   0.043473410745890   0.378860897796487   0.110965124170327   1.0000000
B2   B   0.045468557481969   0.523263334125531   0.110994491524110   1.0000000
B2   B   0.049799434902531   0.667804687289433   0.111034695316768   1.0000000
B2   B   0.051915293088253   0.811552538545414   0.111050345884102   1.0000000
B2   B   0.191996407271981   0.952665799416735   0.111046700814981   1.0000000
B2   B   0.189511767227790   0.093119315809439   0.111063704288000   1.0000000
B2   B   0.184957085189878   0.232994930842818   0.111020060508742   1.0000000
B2   B   0.182880891128553   0.376802705328155   0.111037105855203   1.0000000
B2   B   0.182860963994250   0.522320307916214   0.111049602640588   1.0000000
B2   B   0.187210354500560   0.667286765462136   0.111079081796024   1.0000000
B2   B   0.191522001717163   0.810565886201758   0.111024101754080   1.0000000
B2   B   0.333547366435642   0.952376301508898   0.111028713993900   1.0000000
B2   B   0.332860813763636   0.093337895694088   0.111083981510376   1.0000000
B2   B   0.327999311973461   0.231541413333983   0.111029732712596   1.0000000
B2   B   0.321159641043321   0.371448148727841   0.111109178578578   1.0000000
B2   B   0.318398429836199   0.519900955415626   0.111162367612983   1.0000000
B2   B   0.323680024628776   0.667087454574679   0.111159705891719   1.0000000
B2   B   0.332049410354732   0.810564007820842   0.111040143622573   1.0000000
B2   B   0.475746660332003   0.953049956572649   0.110979146646309   1.0000000
B2   B   0.475956761359336   0.093378380162942   0.111031156281077   1.0000000
B2   B   0.475143387998361   0.232248320894951   0.111025746443335   1.0000000
B2   B   0.465431753393769   0.359851596039735   0.111003420529223   1.0000000
B2   B   0.444164767448295   0.517496744063061   0.110406241088559   1.0000000
B2   B   0.456238247794554   0.675058696690797   0.111159038587654   1.0000000
B2   B   0.474446889980902   0.813194306670824   0.111048640740566   1.0000000
B2   B   0.619145671222830   0.952758369137034   0.111000247898388   1.0000000
B2   B   0.618820776011932   0.094513761141523   0.110997168641922   1.0000000
B2   B   0.619189288404628   0.236591038262414   0.110992148236214   1.0000000
B2   B   0.621062100803418   0.379600303023608   0.111005240298807   1.0000000
B2   B   0.646492207759960   0.537883072329137   0.111080546279578   1.0000000
B2   B   0.650703262767331   0.680659602009725   0.111477156913481   1.0000000
B2   B   0.622249735090985   0.811748021692307   0.111086478613607   1.0000000
B2   B   0.763837583819225   0.953759097234670   0.110966360749065   1.0000000
B2   B   0.761391385135891   0.094729450217460   0.111059477608943   1.0000000
B2   B   0.761253943508207   0.236956303373908   0.111027611092938   1.0000000
B2   B   0.763091377581651   0.380122042399433   0.111003919977832   1.0000000
B2   B   0.770780529949627   0.525494496066073   0.111019915186374   1.0000000
B2   B   0.782349866019002   0.675782781526762   0.111023638822519   1.0000000
B2   B   0.773449482505919   0.817750347499393   0.110946609056272   1.0000000
N2   N   0.957353850247038   0.908333195958966   0.110982369248079   1.0000000
N2   N   0.953416953610399   0.048901604909935   0.110998567822605   1.0000000
N2   N   0.950000652641756   0.189075749448576   0.111010725006745   1.0000000
N2   N   0.949504290246001   0.331376725302718   0.110993148708482   1.0000000
N2   N   0.951695729592469   0.474808266362643   0.110986771544952   1.0000000
N2   N   0.956310154406918   0.619270994991981   0.111014446190529   1.0000000
N2   N   0.958180432486741   0.764377441737642   0.110993836219843   1.0000000
N2   N   0.097905231821455   0.906048280632070   0.111020846016246   1.0000000
N2   N   0.095749377948984   0.047740795861761   0.111027986428191   1.0000000
N2   N   0.091726339780807   0.188060447505140   0.110953029775865   1.0000000
N2   N   0.089670733986784   0.330181809497315   0.110926013065440   1.0000000
N2   N   0.089880969228940   0.473923076487482   0.110950708873921   1.0000000
N2   N   0.093779793290563   0.618479109462128   0.111019054340082   1.0000000
N2   N   0.097394888380332   0.762780037807170   0.111018699851213   1.0000000
N2   N   0.239123809310934   0.905237735854639   0.111004470953196   1.0000000
N2   N   0.238438493230097   0.047109861075756   0.111065137255655   1.0000000
N2   N   0.234508491099630   0.187037263609731   0.111011414822442   1.0000000
N2   N   0.228879935174086   0.326721890681105   0.111085560746790   1.0000000
N2   N   0.226633562133510   0.472156094500227   0.111091972211843   1.0000000
N2   N   0.230865147380463   0.617798723808221   0.111075736125346   1.0000000
N2   N   0.237440882727787   0.762327241037878   0.111039800051468   1.0000000
N2   N   0.380912190348967   0.905218416605687   0.110984516909634   1.0000000
N2   N   0.381192036472906   0.046994563613564   0.111047158262023   1.0000000
N2   N   0.379849688466147   0.188017279693994   0.111024908215217   1.0000000
N2   N   0.373159268540092   0.325935610172600   0.111025518117840   1.0000000
N2   N   0.357085817959415   0.464266190235266   0.111022776534644   1.0000000
N2   N   0.366025167039930   0.616529711520004   0.111212065258589   1.0000000
N2   N   0.378507386196547   0.762614747760731   0.111055617417277   1.0000000
N2   N   0.523786844672344   0.906597630665487   0.110976640335031   1.0000000
N2   N   0.523927154859259   0.047211884182810   0.110968610040689   1.0000000
N2   N   0.524038169790532   0.187818592343230   0.111004442825189   1.0000000
N2   N   0.523821463024271   0.326976790982172   0.111000710539151   1.0000000
N2   N   0.522892798103652   0.766407510538369   0.111095504222437   1.0000000
N2   N   0.667771575051143   0.905570914340323   0.110980399297250   1.0000000
N2   N   0.666456853665397   0.047201564526939   0.110995200243247   1.0000000
N2   N   0.666412310903074   0.189488623191285   0.110980810777589   1.0000000
N2   N   0.667472474095579   0.332341257261072   0.110984126140773   1.0000000
N2   N   0.675201906533080   0.476752649774904   0.111018910590601   1.0000000
N2   N   0.691150329485560   0.629370334979087   0.111166572374300   1.0000000
N2   N   0.679592692081070   0.771666044084544   0.111082823490041   1.0000000
N2   N   0.815512719889955   0.910153055697645   0.110899928997069   1.0000000
N2   N   0.809413968725831   0.047784833083941   0.111007740562565   1.0000000
N2   N   0.808195705065709   0.189326554790415   0.111053248532978   1.0000000
N2   N   0.808855284758604   0.331933686602845   0.110997185183145   1.0000000
N2   N   0.813235560081808   0.475427233471080   0.111005612310991   1.0000000
N2   N   0.820343302602811   0.621168963782135   0.110956991901311   1.0000000
N2   N   0.820718047396441   0.769050387503040   0.110950007864445   1.0000000
Se2   Se   0.524474946626464   0.480026894201865   0.110819186116186   1.0000000


