data_1
_audit_creation_method   'vasp2cif'
_cell_length_a    17.52789999999977
_cell_length_b    17.52789999999977
_cell_length_c    15.0
_cell_angle_alpha    90.0
_cell_angle_beta    90.0
_cell_angle_gamma    119.99999999999916

_symmetry_space_group_name_H-M    'P 1'
loop_
_atom_site_label
_atom_site_type_symbol
_atom_site_fract_x
_atom_site_fract_y
_atom_site_fract_z
_atom_site_occupancy
B2   B   0.909632323357124   0.954823601585641   0.110674397870644   1.0000000
B2   B   0.908175981855106   0.096188547084617   0.110803461077741   1.0000000
B2   B   0.907815823350882   0.238251056385716   0.110771036950541   1.0000000
B2   B   0.908297132158311   0.380873226008486   0.110676792049612   1.0000000
B2   B   0.909614320860888   0.524104823523046   0.110754482010563   1.0000000
B2   B   0.910338343084548   0.667530797253510   0.110787530934035   1.0000000
B2   B   0.907869879555558   0.810054441110214   0.110724485455854   1.0000000
B2   B   0.051080581017290   0.953776749138501   0.110701480125909   1.0000000
B2   B   0.051569400635459   0.096859402276453   0.110791875611540   1.0000000
B2   B   0.050476860090836   0.238672561314473   0.110856310460298   1.0000000
B2   B   0.049930840723068   0.381294400264866   0.110730043396980   1.0000000
B2   B   0.050148659849708   0.524607718231335   0.110683690246008   1.0000000
B2   B   0.050944731781640   0.668016396240681   0.110775092887775   1.0000000
B2   B   0.050918871466556   0.811018596259570   0.110760243077817   1.0000000
B2   B   0.193488055544033   0.953999776948791   0.110721965355076   1.0000000
B2   B   0.194315496960061   0.097247565381993   0.110716295759832   1.0000000
B2   B   0.193707235756144   0.239518649954398   0.110795045210450   1.0000000
B2   B   0.191708565382265   0.381417371070296   0.110726026349761   1.0000000
B2   B   0.190528135279924   0.524822769714010   0.110692104837951   1.0000000
B2   B   0.191401155380988   0.668316809848207   0.110720361477067   1.0000000
B2   B   0.192940462870772   0.811228410925339   0.110734145127701   1.0000000
B2   B   0.335695892336876   0.953739831152417   0.110721290653392   1.0000000
B2   B   0.336270839710818   0.096516505100319   0.110760459428888   1.0000000
B2   B   0.337817321407143   0.240693972135750   0.110758282435366   1.0000000
B2   B   0.334912590457010   0.382592818564437   0.110693054349136   1.0000000
B2   B   0.330126480945249   0.525667627221223   0.110668999278978   1.0000000
B2   B   0.331202677528411   0.668851865630056   0.110733758215339   1.0000000
B2   B   0.334923242153785   0.811352497762434   0.110768398921214   1.0000000
B2   B   0.478140078799826   0.952870245388066   0.110755518786990   1.0000000
B2   B   0.478662835316447   0.095158161246240   0.110744546196872   1.0000000
B2   B   0.479231123844579   0.237173269474981   0.110821920236937   1.0000000
B2   B   0.480867205012803   0.378188724110615   0.110816649448526   1.0000000
B2   B   0.468880869976576   0.665314229305481   0.110771718421273   1.0000000
B2   B   0.477347818983651   0.810098732083734   0.110804767603574   1.0000000
B2   B   0.621116563863605   0.954276900000818   0.110773029633356   1.0000000
B2   B   0.621526207776422   0.095145156635886   0.110692013541469   1.0000000
B2   B   0.622243844999182   0.236100957999833   0.110733456847847   1.0000000
B2   B   0.624353735246982   0.376554063891923   0.110807266902060   1.0000000
B2   B   0.630548767547334   0.517298669847816   0.110787563009032   1.0000000
B2   B   0.621668620306461   0.814355200157557   0.110737028583634   1.0000000
B2   B   0.765261251482872   0.954246185738519   0.110701258957176   1.0000000
B2   B   0.764784073903965   0.095709343316641   0.110722367037395   1.0000000
B2   B   0.765183837342484   0.237529301908045   0.110668243591585   1.0000000
B2   B   0.766579813419779   0.379740908029907   0.110708256612074   1.0000000
B2   B   0.769382950712844   0.522790993997121   0.110780836101187   1.0000000
B2   B   0.768629212186135   0.664947092044325   0.110751600783391   1.0000000
B2   B   0.767860318575684   0.814228145934654   0.110671252622320   1.0000000
Al2   Al   0.616741623973601   0.662738734734661   0.110901806186632   1.0000000
N2   N   0.955683876977283   0.905602489212461   0.110672154793088   1.0000000
N2   N   0.956709028143635   0.049516250353996   0.110754302519022   1.0000000
N2   N   0.955625797251135   0.191096931218417   0.110835823654960   1.0000000
N2   N   0.955290151335365   0.333298144122083   0.110704465326726   1.0000000
N2   N   0.955677246050031   0.476070974426415   0.110678611659576   1.0000000
N2   N   0.956349820771261   0.619349169292020   0.110777091665823   1.0000000
N2   N   0.955639460827469   0.762610169353235   0.110758009825276   1.0000000
N2   N   0.098453559400758   0.906238038173201   0.110701449289490   1.0000000
N2   N   0.099181457221167   0.049399554138184   0.110698481756395   1.0000000
N2   N   0.099053947975049   0.191979849216341   0.110839349961972   1.0000000
N2   N   0.097467419720636   0.333675306151271   0.110767672357036   1.0000000
N2   N   0.096561811579256   0.476424245843523   0.110664766582629   1.0000000
N2   N   0.097112985658872   0.619832842892071   0.110707185603839   1.0000000
N2   N   0.097974588735187   0.763205861031353   0.110750299305636   1.0000000
N2   N   0.240754049187096   0.906420461736446   0.110700901127767   1.0000000
N2   N   0.241522661169659   0.049558838150492   0.110708227267042   1.0000000
N2   N   0.242948055183171   0.193454878706898   0.110724614095948   1.0000000
N2   N   0.240895458516536   0.334784184446918   0.110738920952657   1.0000000
N2   N   0.237091265930587   0.476308408035928   0.110672520545834   1.0000000
N2   N   0.237366560480544   0.619980815398611   0.110687355193346   1.0000000
N2   N   0.239915562559537   0.763439203767085   0.110729739761765   1.0000000
N2   N   0.383082101821863   0.906234312013631   0.110735330505699   1.0000000
N2   N   0.383704295910240   0.049056940447930   0.110727285505449   1.0000000
N2   N   0.384734910825994   0.192670449038106   0.110776379074126   1.0000000
N2   N   0.388094557945040   0.339343268282800   0.110745853231813   1.0000000
N2   N   0.377148447190798   0.477192390425175   0.110576236397736   1.0000000
N2   N   0.375954284319322   0.619896947765762   0.110715944237925   1.0000000
N2   N   0.381954597053473   0.763505985359540   0.110759083683075   1.0000000
N2   N   0.525682230365041   0.905298811179151   0.110781272840835   1.0000000
N2   N   0.526278978056686   0.047989418781073   0.110701445090108   1.0000000
N2   N   0.526954398780985   0.190512559147079   0.110763288966568   1.0000000
N2   N   0.528884155967356   0.333796023908061   0.110819754748719   1.0000000
N2   N   0.465551040949613   0.519332302628152   0.110503909569891   1.0000000
N2   N   0.504244709843330   0.607444228494528   0.110673972550698   1.0000000
N2   N   0.524531985702314   0.761300079083010   0.110795704372457   1.0000000
N2   N   0.669371626420377   0.908267536476027   0.110728923847862   1.0000000
N2   N   0.669422592900759   0.048669521473613   0.110709375909012   1.0000000
N2   N   0.669839465439044   0.189817802305470   0.110656475294903   1.0000000
N2   N   0.671033025582731   0.330714772448269   0.110734046429014   1.0000000
N2   N   0.673421280180579   0.470140708754819   0.110792603828999   1.0000000
N2   N   0.673137746891605   0.607079475025502   0.110728518451477   1.0000000
N2   N   0.674649680077991   0.774227359341582   0.110685783439064   1.0000000
N2   N   0.815042662483873   0.908298202873542   0.110634875111947   1.0000000
N2   N   0.812932276980627   0.048861019322036   0.110731989962408   1.0000000
N2   N   0.812723619046481   0.190567477064315   0.110691074491943   1.0000000
N2   N   0.813291347731604   0.332592550133112   0.110653811334304   1.0000000
N2   N   0.814749679983415   0.474957173769071   0.110727680564798   1.0000000
N2   N   0.815487496654516   0.617928770334085   0.110769463075461   1.0000000
N2   N   0.811610367359437   0.760955493634017   0.110703893787076   1.0000000


