data_1
_audit_creation_method   'vasp2cif'
_cell_length_a    14.93631414619966
_cell_length_b    14.936314146199727
_cell_length_c    13.341276283792837
_cell_angle_alpha    90.0
_cell_angle_beta    90.0
_cell_angle_gamma    119.99999999999984

_symmetry_space_group_name_H-M    'P 1'
loop_
_atom_site_label
_atom_site_type_symbol
_atom_site_fract_x
_atom_site_fract_y
_atom_site_fract_z
_atom_site_occupancy
C2   C   0.437995429038133   0.383268747118177   0.375000000000000   1.0000000
C2   C   0.547358874618421   0.435602778221200   0.375000000000000   1.0000000
N2   N   0.111071188394748   0.055523197265446   0.125162094875148   1.0000000
N2   N   0.611117218348591   0.555545950220041   0.125656282006291   1.0000000
N2   N   0.444429488040265   0.055563114242924   0.125058385453399   1.0000000
N2   N   0.944448162199564   0.555563559417151   0.125551924856711   1.0000000
N2   N   0.777745902533882   0.055530949057849   0.125134800431515   1.0000000
N2   N   0.111116188176314   0.722227724212021   0.624832465953947   1.0000000
N2   N   0.444436033100446   0.722209135023933   0.624789738046753   1.0000000
N2   N   0.277760679273329   0.222207045903341   0.624611585239129   1.0000000
N2   N   0.777762859455535   0.722200264097081   0.624575883130882   1.0000000
N2   N   0.611114197502318   0.222226215564482   0.624806659946848   1.0000000
N2   N   0.944414496260369   0.222211305079844   0.624842698621736   1.0000000
N2   N   0.277781166613344   0.722229269934054   0.125141684029829   1.0000000
N2   N   0.111088194541742   0.222203515552397   0.125207792871133   1.0000000
N2   N   0.444398414949161   0.222225775621254   0.125059787312712   1.0000000
N2   N   0.611096240757856   0.722197300424995   0.125280716388236   1.0000000
N2   N   0.944436206534639   0.722208106415196   0.125365214381100   1.0000000
N2   N   0.777745919069786   0.222214439807248   0.125318975638906   1.0000000
N2   N   0.111095639095763   0.888877909929444   0.624867297201108   1.0000000
N2   N   0.444434393650179   0.888892557753635   0.624894572396804   1.0000000
N2   N   0.277781893891789   0.388878925600869   0.624639936866264   1.0000000
N2   N   0.611128159455108   0.388919720622212   0.625567824336445   1.0000000
N2   N   0.777750319869379   0.888861070148670   0.624859230619674   1.0000000
N2   N   0.944429312584849   0.388896861257543   0.624663025649049   1.0000000
N2   N   0.111102041341107   0.388889689992751   0.125166192695911   1.0000000
N2   N   0.277776420585741   0.888897321282320   0.125108210086826   1.0000000
N2   N   0.611086396326929   0.888871870865847   0.125136898406453   1.0000000
N2   N   0.444433975158703   0.388877053095559   0.125259474550139   1.0000000
N2   N   0.944416621015343   0.888860447893650   0.125149606649041   1.0000000
N2   N   0.777772423561779   0.388909113389600   0.126156814674722   1.0000000
N2   N   0.277783665453721   0.555554531505743   0.624761431772272   1.0000000
N2   N   0.111071188394748   0.055523197265446   0.624837905124852   1.0000000
N2   N   0.611117218348591   0.555545950220041   0.624343717993710   1.0000000
N2   N   0.444429488040265   0.055563114242924   0.624941614546601   1.0000000
N2   N   0.944448162199564   0.555563559417151   0.624448075143289   1.0000000
N2   N   0.111113707677110   0.555564164747475   0.125177967823860   1.0000000
N2   N   0.777745902533882   0.055530949057849   0.624865199568485   1.0000000
N2   N   0.277752240676967   0.055549455257394   0.125138144076636   1.0000000
N2   N   0.444447730212554   0.555526678385333   0.125507874885846   1.0000000
N2   N   0.777771369389524   0.555543894520252   0.126273659213779   1.0000000
N2   N   0.611088125160505   0.055550666508772   0.125106188115845   1.0000000
N2   N   0.444447730212554   0.555526678385333   0.624492125114154   1.0000000
N2   N   0.944409807862580   0.055524997190530   0.125148609438321   1.0000000
N2   N   0.277781166613344   0.722229269934054   0.624858315970171   1.0000000
N2   N   0.111088194541742   0.222203515552397   0.624792207128868   1.0000000
N2   N   0.444398414949161   0.222225775621254   0.624940212687289   1.0000000
N2   N   0.611096240757856   0.722197300424995   0.624719283611764   1.0000000
N2   N   0.944436206534639   0.722208106415196   0.624634785618900   1.0000000
N2   N   0.777745919069786   0.222214439807248   0.624681024361094   1.0000000
N2   N   0.111116188176314   0.722227724212021   0.125167534046053   1.0000000
N2   N   0.444436033100446   0.722209135023933   0.125210261953247   1.0000000
N2   N   0.277760679273329   0.222207045903341   0.125388414760871   1.0000000
N2   N   0.777762859455535   0.722200264097081   0.125424116869119   1.0000000
N2   N   0.611114197502318   0.222226215564482   0.125193340053153   1.0000000
N2   N   0.944414496260369   0.222211305079844   0.125157301378264   1.0000000
N2   N   0.111102041341107   0.388889689992751   0.624833807304089   1.0000000
N2   N   0.277776420585741   0.888897321282320   0.624891789913174   1.0000000
N2   N   0.611086396326929   0.888871870865847   0.624863101593548   1.0000000
N2   N   0.444433975158703   0.388877053095559   0.624740525449860   1.0000000
N2   N   0.944416621015343   0.888860447893650   0.624850393350960   1.0000000
N2   N   0.111095639095763   0.888877909929444   0.125132702798892   1.0000000
N2   N   0.777772423561779   0.388909113389600   0.623843185325279   1.0000000
N2   N   0.444434393650179   0.888892557753635   0.125105427603196   1.0000000
N2   N   0.277781893891789   0.388878925600869   0.125360063133735   1.0000000
N2   N   0.277783665453721   0.555554531505743   0.125238568227728   1.0000000
N2   N   0.611128159455108   0.388919720622212   0.124432175663554   1.0000000
N2   N   0.777750319869379   0.888861070148670   0.125140769380327   1.0000000
N2   N   0.944429312584849   0.388896861257543   0.125336974350950   1.0000000
N2   N   0.111113707677110   0.555564164747475   0.624822032176141   1.0000000
N2   N   0.277752240676967   0.055549455257394   0.624861855923364   1.0000000
N2   N   0.777771369389524   0.555543894520252   0.623726340786221   1.0000000
N2   N   0.611088125160505   0.055550666508772   0.624893811884154   1.0000000
N2   N   0.944409807862580   0.055524997190530   0.624851390561679   1.0000000
N2   N   0.053929703852308   0.110282480844342   0.375000000000000   1.0000000
N2   N   0.556593573265172   0.609809777178945   0.375000000000000   1.0000000
N2   N   0.388317035715903   0.112643688889745   0.375000000000000   1.0000000
N2   N   0.891260721338845   0.611384103103218   0.375000000000000   1.0000000
N2   N   0.721688508056395   0.112583328544091   0.375000000000000   1.0000000
N2   N   0.055548747402727   0.777774722046771   0.875000000000000   1.0000000
N2   N   0.388884876740157   0.777773518010850   0.875000000000000   1.0000000
N2   N   0.222217642283941   0.277778102343436   0.875000000000000   1.0000000
N2   N   0.722219508741650   0.777774508894107   0.875000000000000   1.0000000
N2   N   0.555548453211099   0.277771793687931   0.875000000000000   1.0000000
N2   N   0.888889847653278   0.277781575079480   0.875000000000000   1.0000000
N2   N   0.223712035713629   0.778407622304248   0.375000000000000   1.0000000
N2   N   0.054211798057333   0.277393385865787   0.375000000000000   1.0000000
N2   N   0.386036465102687   0.279828812569376   0.375000000000000   1.0000000
N2   N   0.555959057322450   0.777310848400434   0.375000000000000   1.0000000
N2   N   0.889065980081243   0.777180389325247   0.375000000000000   1.0000000
N2   N   0.721531168540521   0.281600488786901   0.375000000000000   1.0000000
N2   N   0.055551615758612   0.944447478349980   0.875000000000000   1.0000000
N2   N   0.388885587065057   0.944439966241344   0.875000000000000   1.0000000
N2   N   0.222216310891320   0.444441487629423   0.875000000000000   1.0000000
N2   N   0.555545071317037   0.444443697940465   0.875000000000000   1.0000000
N2   N   0.722222034141086   0.944444702491645   0.875000000000000   1.0000000
N2   N   0.888889290360201   0.444443349285033   0.875000000000000   1.0000000
N2   N   0.056573288463590   0.444744343272733   0.375000000000000   1.0000000
N2   N   0.222685889466625   0.945112501172938   0.375000000000000   1.0000000
N2   N   0.555761415266119   0.945371773073066   0.375000000000000   1.0000000
N2   N   0.388184672892745   0.439295939650438   0.375000000000000   1.0000000
N2   N   0.888101497616430   0.943808796581940   0.375000000000000   1.0000000
N2   N   0.222214300297950   0.611104130631999   0.875000000000000   1.0000000
N2   N   0.055552488648962   0.111111591274386   0.875000000000000   1.0000000
N2   N   0.555546462360608   0.611102763732167   0.875000000000000   1.0000000
N2   N   0.388884467966196   0.111107072876341   0.875000000000000   1.0000000
N2   N   0.888883878956234   0.611104462565170   0.875000000000000   1.0000000
N2   N   0.057966422169440   0.612103723977589   0.375000000000000   1.0000000
N2   N   0.722220764052147   0.111112231771532   0.875000000000000   1.0000000
N2   N   0.221115968705735   0.111056042420082   0.375000000000000   1.0000000
N2   N   0.389973117000937   0.608857196848649   0.375000000000000   1.0000000
N2   N   0.722398057433119   0.607413052316401   0.375000000000000   1.0000000
N2   N   0.555556031057886   0.113559721646777   0.375000000000000   1.0000000
N2   N   0.388883533443167   0.611104995417915   0.875000000000000   1.0000000
N2   N   0.887756972836244   0.111003483848557   0.375000000000000   1.0000000
N2   N   0.222214471174910   0.777771644461916   0.875000000000000   1.0000000
N2   N   0.055552376263134   0.277777159170938   0.875000000000000   1.0000000
N2   N   0.388883092519640   0.277779712467485   0.875000000000000   1.0000000
N2   N   0.555552410844801   0.777773572840430   0.875000000000000   1.0000000
N2   N   0.888885900279179   0.777777599127805   0.875000000000000   1.0000000
N2   N   0.722223561081069   0.277780911739731   0.875000000000000   1.0000000
N2   N   0.056841590230141   0.778393747315258   0.375000000000000   1.0000000
N2   N   0.389901460909049   0.777471497017673   0.375000000000000   1.0000000
N2   N   0.219482492169362   0.276409605620832   0.375000000000000   1.0000000
N2   N   0.722297233565685   0.776420486392151   0.375000000000000   1.0000000
N2   N   0.554046322585058   0.280959381646419   0.375000000000000   1.0000000
N2   N   0.888230245354506   0.278498326655832   0.375000000000000   1.0000000
N2   N   0.055551614768132   0.444442329184814   0.875000000000000   1.0000000
N2   N   0.222216787296206   0.944442879106786   0.875000000000000   1.0000000
N2   N   0.555552743162415   0.944443493917446   0.875000000000000   1.0000000
N2   N   0.388882188641681   0.444444260868763   0.875000000000000   1.0000000
N2   N   0.888890270274565   0.944447447164070   0.875000000000000   1.0000000
N2   N   0.055149362962280   0.944203682142768   0.375000000000000   1.0000000
N2   N   0.722224139749469   0.444443964742579   0.875000000000000   1.0000000
N2   N   0.389537262349385   0.945422082530119   0.375000000000000   1.0000000
N2   N   0.222543919963481   0.443604189845191   0.375000000000000   1.0000000
N2   N   0.223814115386513   0.610961169367802   0.375000000000000   1.0000000
N2   N   0.721821287874958   0.944375268196389   0.375000000000000   1.0000000
N2   N   0.891226941100309   0.446750480640562   0.375000000000000   1.0000000
N2   N   0.055548243348836   0.611103218661413   0.875000000000000   1.0000000
N2   N   0.222217300972856   0.111112577581156   0.875000000000000   1.0000000
N2   N   0.722215462508681   0.611104096198961   0.875000000000000   1.0000000
N2   N   0.555551399519478   0.111107257213367   0.875000000000000   1.0000000
N2   N   0.888889723804308   0.111112627005327   0.875000000000000   1.0000000
B2   B   0.109946631224522   0.055143959272215   0.375000000000000   1.0000000
B2   B   0.611040527538197   0.553586942133664   0.375000000000000   1.0000000
B2   B   0.444597676065685   0.057356178034861   0.375000000000000   1.0000000
B2   B   0.948693950703235   0.557635563307320   0.375000000000000   1.0000000
B2   B   0.776687089138813   0.055888688235747   0.375000000000000   1.0000000
B2   B   0.111131885772606   0.722241018802522   0.875000000000000   1.0000000
B2   B   0.444442784915144   0.722243984892633   0.875000000000000   1.0000000
B2   B   0.277784233368852   0.222207546070029   0.875000000000000   1.0000000
B2   B   0.777775502592850   0.722233300144901   0.875000000000000   1.0000000
B2   B   0.611074313390900   0.222197398979534   0.875000000000000   1.0000000
B2   B   0.944429292503683   0.222208441406890   0.875000000000000   1.0000000
B2   B   0.279133117168976   0.722528307934193   0.375000000000000   1.0000000
B2   B   0.108143093232182   0.220726749636614   0.375000000000000   1.0000000
B2   B   0.447776443539756   0.224950514656560   0.375000000000000   1.0000000
B2   B   0.611412014530203   0.721970997188099   0.375000000000000   1.0000000
B2   B   0.946783874106733   0.724338885890464   0.375000000000000   1.0000000
B2   B   0.777015342496793   0.223316296533973   0.375000000000000   1.0000000
B2   B   0.111135582981900   0.888914221651160   0.875000000000000   1.0000000
B2   B   0.444447510251745   0.888910083474333   0.875000000000000   1.0000000
B2   B   0.277764238206869   0.388876588895577   0.875000000000000   1.0000000
B2   B   0.611071885299441   0.388826957786464   0.875000000000000   1.0000000
B2   B   0.777777608106124   0.888911575283397   0.875000000000000   1.0000000
B2   B   0.944437576704589   0.388869073904952   0.875000000000000   1.0000000
B2   B   0.111118487128362   0.388249649435636   0.375000000000000   1.0000000
B2   B   0.278894632445975   0.889924346448432   0.375000000000000   1.0000000
B2   B   0.610823575145629   0.889223693749391   0.375000000000000   1.0000000
B2   B   0.944296575510772   0.889027587784298   0.375000000000000   1.0000000
B2   B   0.784218404809670   0.387546686141033   0.375000000000000   1.0000000
B2   B   0.277772499214767   0.555561418406356   0.875000000000000   1.0000000
B2   B   0.111122658206190   0.055563276942967   0.875000000000000   1.0000000
B2   B   0.611085418769705   0.555528856002900   0.875000000000000   1.0000000
B2   B   0.444447568511500   0.055557537104579   0.875000000000000   1.0000000
B2   B   0.944450717777093   0.555546928199593   0.875000000000000   1.0000000
B2   B   0.113160659374700   0.555915551945110   0.375000000000000   1.0000000
B2   B   0.777762632176571   0.055559658986941   0.875000000000000   1.0000000
B2   B   0.278027475289473   0.056277102524335   0.375000000000000   1.0000000
B2   B   0.445823360657805   0.553890377742320   0.375000000000000   1.0000000
B2   B   0.784231769996482   0.561502209791246   0.375000000000000   1.0000000
B2   B   0.610185397256116   0.057187458778600   0.375000000000000   1.0000000
B2   B   0.444431943357800   0.555554621072021   0.875000000000000   1.0000000
B2   B   0.942925455477641   0.054942736689981   0.375000000000000   1.0000000
B2   B   0.277788737285247   0.722242838872359   0.875000000000000   1.0000000
B2   B   0.111100734577690   0.222210138534944   0.875000000000000   1.0000000
B2   B   0.444454787514145   0.222199709327982   0.875000000000000   1.0000000
B2   B   0.611102622205588   0.722236717724651   0.875000000000000   1.0000000
B2   B   0.944459034100911   0.722240344787622   0.875000000000000   1.0000000
B2   B   0.777749599793965   0.222203125441247   0.875000000000000   1.0000000
B2   B   0.113339770291549   0.723581525370793   0.375000000000000   1.0000000
B2   B   0.445055591090769   0.721375122952228   0.375000000000000   1.0000000
B2   B   0.273707492647230   0.220817108210476   0.375000000000000   1.0000000
B2   B   0.778469736645117   0.721829784259804   0.375000000000000   1.0000000
B2   B   0.607429642786743   0.226612589737892   0.375000000000000   1.0000000
B2   B   0.943117382726062   0.221814715196839   0.375000000000000   1.0000000
B2   B   0.111100745860024   0.388876274622512   0.875000000000000   1.0000000
B2   B   0.277799348935632   0.888910404077426   0.875000000000000   1.0000000
B2   B   0.611103980255165   0.888910985528132   0.875000000000000   1.0000000
B2   B   0.444435167906481   0.388860076045910   0.875000000000000   1.0000000
B2   B   0.944457979996050   0.888915063988984   0.875000000000000   1.0000000
B2   B   0.111991380927802   0.889829079936819   0.375000000000000   1.0000000
B2   B   0.777748583024066   0.388850665181867   0.875000000000000   1.0000000
B2   B   0.444819671801157   0.889437554456438   0.375000000000000   1.0000000
B2   B   0.275166848112358   0.386141992757904   0.375000000000000   1.0000000
B2   B   0.278668375522630   0.554830221112745   0.375000000000000   1.0000000
B2   B   0.777260377637652   0.888524355353547   0.375000000000000   1.0000000
B2   B   0.946220346010345   0.388826468108274   0.375000000000000   1.0000000
B2   B   0.111118441587559   0.555556103099981   0.875000000000000   1.0000000
B2   B   0.277800518953612   0.055560024089454   0.875000000000000   1.0000000
B2   B   0.777759413601553   0.555528214321719   0.875000000000000   1.0000000
B2   B   0.611090867471804   0.055558353186822   0.875000000000000   1.0000000
B2   B   0.944441212633188   0.055562756675245   0.875000000000000   1.0000000
B2   B   0.055499938983471   0.111033175971346   0.124875756802407   1.0000000
B2   B   0.555582862914399   0.611154944910609   0.124986842012252   1.0000000
B2   B   0.388937330914676   0.111132607401645   0.125017571973081   1.0000000
B2   B   0.888940385499748   0.611157609132272   0.125065444446050   1.0000000
B2   B   0.722105959805274   0.111029949269628   0.124932131683911   1.0000000
B2   B   0.055648681758898   0.777855305707668   0.625150492316399   1.0000000
B2   B   0.388919328366343   0.777875871688128   0.625075183159728   1.0000000
B2   B   0.222166627613277   0.277685557566592   0.625179278133180   1.0000000
B2   B   0.722206294938679   0.777836529742472   0.625119592828110   1.0000000
B2   B   0.555550038263755   0.277779545165739   0.624376357542927   1.0000000
B2   B   0.888795035719302   0.277686882112555   0.625120074597521   1.0000000
B2   B   0.222314536373051   0.777881306803529   0.124887965966026   1.0000000
B2   B   0.055497754534411   0.277732763147442   0.124832778901933   1.0000000
B2   B   0.388947064068907   0.277656947592737   0.124687647940835   1.0000000
B2   B   0.555542598865589   0.777844540922506   0.124913003859412   1.0000000
B2   B   0.888919286562234   0.777841386634981   0.124875159285720   1.0000000
B2   B   0.721996552025791   0.277599786688042   0.125178844333791   1.0000000
B2   B   0.055566992009342   0.944435568575690   0.625132296879708   1.0000000
B2   B   0.388934834544885   0.944530578115023   0.625043616636523   1.0000000
B2   B   0.222201892499551   0.444465220763730   0.625153321654283   1.0000000
B2   B   0.555619958798165   0.444276025234412   0.625126918490744   1.0000000
B2   B   0.722163804867847   0.944443064501259   0.625105174757120   1.0000000
B2   B   0.888856620326228   0.444403214611652   0.624951572136047   1.0000000
B2   B   0.055567106178133   0.444459978344683   0.124816224932818   1.0000000
B2   B   0.222279195037995   0.944474399223718   0.124917544289267   1.0000000
B2   B   0.555522934241323   0.944482427556199   0.124940288918833   1.0000000
B2   B   0.388909824471170   0.444395363010182   0.124664991905027   1.0000000
B2   B   0.888856077259450   0.944438942797828   0.124863408461363   1.0000000
B2   B   0.721941583621321   0.444246114706168   0.125236405653310   1.0000000
B2   B   0.222274560845098   0.611203006222990   0.625135010638842   1.0000000
B2   B   0.055499938983471   0.111033175971346   0.625124243197593   1.0000000
B2   B   0.555582862914399   0.611154944910609   0.625013157987748   1.0000000
B2   B   0.388937330914676   0.111132607401645   0.624982428026918   1.0000000
B2   B   0.888940385499748   0.611157609132272   0.624934555553950   1.0000000
B2   B   0.055661919637502   0.611195753779280   0.124833609048360   1.0000000
B2   B   0.722105959805274   0.111029949269628   0.625067868316089   1.0000000
B2   B   0.222203051008552   0.111007531171386   0.124925386024762   1.0000000
B2   B   0.388893325337117   0.611187015031890   0.124930876636076   1.0000000
B2   B   0.722190413610079   0.611136541968392   0.125137537303107   1.0000000
B2   B   0.555513501227636   0.111135279483343   0.125061730487612   1.0000000
B2   B   0.388893325337117   0.611187015031890   0.625069123363925   1.0000000
B2   B   0.888807520676829   0.111046235052113   0.124880981389319   1.0000000
B2   B   0.222314536373051   0.777881306803529   0.625112034033975   1.0000000
B2   B   0.055497754534411   0.277732763147442   0.625167221098067   1.0000000
B2   B   0.388947064068907   0.277656947592737   0.625312352059166   1.0000000
B2   B   0.555542598865589   0.777844540922506   0.625086996140588   1.0000000
B2   B   0.888919286562234   0.777841386634981   0.625124840714280   1.0000000
B2   B   0.721996552025791   0.277599786688042   0.624821155666209   1.0000000
B2   B   0.055648681758898   0.777855305707668   0.124849507683602   1.0000000
B2   B   0.388919328366343   0.777875871688128   0.124924816840271   1.0000000
B2   B   0.222166627613277   0.277685557566592   0.124820721866820   1.0000000
B2   B   0.722206294938679   0.777836529742472   0.124880407171890   1.0000000
B2   B   0.555550038263755   0.277779545165739   0.125623642457073   1.0000000
B2   B   0.888795035719302   0.277686882112555   0.124879925402479   1.0000000
B2   B   0.055567106178133   0.444459978344683   0.625183775067183   1.0000000
B2   B   0.222279195037995   0.944474399223718   0.625082455710733   1.0000000
B2   B   0.555522934241323   0.944482427556199   0.625059711081167   1.0000000
B2   B   0.388909824471170   0.444395363010182   0.625335008094972   1.0000000
B2   B   0.888856077259450   0.944438942797828   0.625136591538637   1.0000000
B2   B   0.055566992009342   0.944435568575690   0.124867703120292   1.0000000
B2   B   0.721941583621321   0.444246114706168   0.624763594346690   1.0000000
B2   B   0.388934834544885   0.944530578115023   0.124956383363477   1.0000000
B2   B   0.222201892499551   0.444465220763730   0.124846678345717   1.0000000
B2   B   0.222274560845098   0.611203006222990   0.124864989361157   1.0000000
B2   B   0.555619958798165   0.444276025234412   0.124873081509256   1.0000000
B2   B   0.722163804867847   0.944443064501259   0.124894825242879   1.0000000
B2   B   0.888856620326228   0.444403214611652   0.125048427863953   1.0000000
B2   B   0.055661919637502   0.611195753779280   0.625166390951641   1.0000000
B2   B   0.222203051008552   0.111007531171386   0.625074613975237   1.0000000
B2   B   0.722190413610079   0.611136541968392   0.624862462696892   1.0000000
B2   B   0.555513501227636   0.111135279483343   0.624938269512388   1.0000000
B2   B   0.888807520676829   0.111046235052113   0.625119018610681   1.0000000


