data_1
_audit_creation_method   'vasp2cif'
_cell_length_a    14.93631414619966
_cell_length_b    14.936314146199727
_cell_length_c    13.341276283792837
_cell_angle_alpha    90.0
_cell_angle_beta    90.0
_cell_angle_gamma    119.99999999999984

_symmetry_space_group_name_H-M    'P 1'
loop_
_atom_site_label
_atom_site_type_symbol
_atom_site_fract_x
_atom_site_fract_y
_atom_site_fract_z
_atom_site_occupancy
S2   S   0.444444444444443   0.388888888888886   0.375000000000000   1.0000000
N2   N   0.111112000090020   0.055548724795350   0.125223756662551   1.0000000
N2   N   0.611103770479386   0.555549079381414   0.125386841915855   1.0000000
N2   N   0.444436724705330   0.055548724795350   0.125223756662551   1.0000000
N2   N   0.944451341833415   0.555561834830128   0.125137666720449   1.0000000
N2   N   0.777777777777779   0.055555555555557   0.125089506942336   1.0000000
N2   N   0.111111111111114   0.722222222222221   0.624874554330298   1.0000000
N2   N   0.444436724705330   0.722221333243316   0.624776243337448   1.0000000
N2   N   0.277784253951922   0.222229562853949   0.624613158084145   1.0000000
N2   N   0.777784608537986   0.722221333243316   0.624776243337448   1.0000000
N2   N   0.611109799017874   0.222223534315461   0.624757292085644   1.0000000
N2   N   0.944446679939140   0.222228374997882   0.624907488515479   1.0000000
N2   N   0.277771498503208   0.722222840336624   0.125137666720449   1.0000000
N2   N   0.111113735297602   0.222223534315461   0.125242707914356   1.0000000
N2   N   0.444445308902021   0.222229562853949   0.125386841915855   1.0000000
N2   N   0.611109799017874   0.722219598035734   0.125242707914356   1.0000000
N2   N   0.944451341833415   0.722222840336624   0.125137666720449   1.0000000
N2   N   0.777781695058743   0.222228374997882   0.125092511484522   1.0000000
N2   N   0.111110492996713   0.888881991499914   0.624862333279551   1.0000000
N2   N   0.444435639012595   0.888884486172961   0.624904729594522   1.0000000
N2   N   0.277784253951922   0.388888024431307   0.624613158084145   1.0000000
N2   N   0.611103770479386   0.388888024431307   0.624613158084145   1.0000000
N2   N   0.777781695058743   0.888886653394189   0.624907488515479   1.0000000
N2   N   0.944448847160367   0.388897694320733   0.624904729594522   1.0000000
N2   N   0.111112000090020   0.388896608627999   0.125223756662551   1.0000000
N2   N   0.277771498503208   0.888881991499914   0.125137666720449   1.0000000
N2   N   0.611104958335453   0.888886653394189   0.125092511484522   1.0000000
N2   N   0.444444444444443   0.388888888888886   0.123538813992141   1.0000000
N2   N   0.944448847160367   0.888884486172961   0.125095270405484   1.0000000
N2   N   0.777784608537986   0.388896608627999   0.125223756662551   1.0000000
N2   N   0.277775499686525   0.555557833646811   0.624688910765034   1.0000000
N2   N   0.111112000090020   0.055548724795350   0.624776243337448   1.0000000
N2   N   0.611103770479386   0.555549079381414   0.624613158084145   1.0000000
N2   N   0.444436724705330   0.055548724795350   0.624776243337448   1.0000000
N2   N   0.944451341833415   0.555561834830128   0.624862333279551   1.0000000
N2   N   0.111110492996713   0.555561834830128   0.125137666720449   1.0000000
N2   N   0.777777777777779   0.055555555555557   0.624910493057664   1.0000000
N2   N   0.277775499686525   0.055550999373043   0.125311089234966   1.0000000
N2   N   0.444445308902021   0.555549079381414   0.125386841915855   1.0000000
N2   N   0.777782333960293   0.555557833646811   0.125311089234966   1.0000000
N2   N   0.611104958335453   0.055551638274594   0.125092511484522   1.0000000
N2   N   0.444445308902021   0.555549079381414   0.624613158084145   1.0000000
N2   N   0.944446679939140   0.055551638274594   0.125092511484522   1.0000000
N2   N   0.277771498503208   0.722222840336624   0.624862333279551   1.0000000
N2   N   0.111113735297602   0.222223534315461   0.624757292085644   1.0000000
N2   N   0.444445308902021   0.222229562853949   0.624613158084145   1.0000000
N2   N   0.611109799017874   0.722219598035734   0.624757292085644   1.0000000
N2   N   0.944451341833415   0.722222840336624   0.624862333279551   1.0000000
N2   N   0.777781695058743   0.222228374997882   0.624907488515479   1.0000000
N2   N   0.111111111111114   0.722222222222221   0.125125445669702   1.0000000
N2   N   0.444436724705330   0.722221333243316   0.125223756662551   1.0000000
N2   N   0.277784253951922   0.222229562853949   0.125386841915855   1.0000000
N2   N   0.777784608537986   0.722221333243316   0.125223756662551   1.0000000
N2   N   0.611109799017874   0.222223534315461   0.125242707914356   1.0000000
N2   N   0.944446679939140   0.222228374997882   0.125092511484522   1.0000000
N2   N   0.111112000090020   0.388896608627999   0.624776243337448   1.0000000
N2   N   0.277771498503208   0.888881991499914   0.624862333279551   1.0000000
N2   N   0.611104958335453   0.888886653394189   0.624907488515479   1.0000000
N2   N   0.444444444444443   0.388888888888886   0.626461186007860   1.0000000
N2   N   0.944448847160367   0.888884486172961   0.624904729594522   1.0000000
N2   N   0.111110492996713   0.888881991499914   0.125137666720449   1.0000000
N2   N   0.777784608537986   0.388896608627999   0.624776243337448   1.0000000
N2   N   0.444435639012595   0.888884486172961   0.125095270405484   1.0000000
N2   N   0.277784253951922   0.388888024431307   0.125386841915855   1.0000000
N2   N   0.277775499686525   0.555557833646811   0.125311089234966   1.0000000
N2   N   0.611103770479386   0.388888024431307   0.125386841915855   1.0000000
N2   N   0.777781695058743   0.888886653394189   0.125092511484522   1.0000000
N2   N   0.944448847160367   0.388897694320733   0.125095270405484   1.0000000
N2   N   0.111110492996713   0.555561834830128   0.624862333279551   1.0000000
N2   N   0.277775499686525   0.055550999373043   0.624688910765034   1.0000000
N2   N   0.777782333960293   0.555557833646811   0.624688910765034   1.0000000
N2   N   0.611104958335453   0.055551638274594   0.624907488515479   1.0000000
N2   N   0.944446679939140   0.055551638274594   0.624907488515479   1.0000000
N2   N   0.054817324202435   0.110601957605978   0.375000000000000   1.0000000
N2   N   0.556041789308172   0.612083578616336   0.375000000000000   1.0000000
N2   N   0.388126161928549   0.107381459179137   0.375000000000000   1.0000000
N2   N   0.890156543670890   0.611744938502117   0.375000000000000   1.0000000
N2   N   0.722351558221277   0.110981775112059   0.375000000000000   1.0000000
N2   N   0.055553751540476   0.777779581792859   0.875000000000000   1.0000000
N2   N   0.388894916873018   0.777780462119117   0.875000000000000   1.0000000
N2   N   0.222224035337497   0.277778684335416   0.875000000000000   1.0000000
N2   N   0.722221215405523   0.777779087876888   0.875000000000000   1.0000000
N2   N   0.555554648997919   0.277778684335416   0.875000000000000   1.0000000
N2   N   0.888887416283595   0.277774832567195   0.875000000000000   1.0000000
N2   N   0.221993746117430   0.777663539725386   0.375000000000000   1.0000000
N2   N   0.054817324202435   0.277548699929794   0.375000000000000   1.0000000
N2   N   0.381482688311368   0.262965376622744   0.375000000000000   1.0000000
N2   N   0.555784633403543   0.778516009130900   0.375000000000000   1.0000000
N2   N   0.889902941244454   0.778615587391138   0.375000000000000   1.0000000
N2   N   0.722731375727358   0.277548699929794   0.375000000000000   1.0000000
N2   N   0.055552871214220   0.944447788087238   0.875000000000000   1.0000000
N2   N   0.388894916873018   0.944447788087238   0.875000000000000   1.0000000
N2   N   0.222223137992187   0.444440695942394   0.875000000000000   1.0000000
N2   N   0.555561128926977   0.444447231130156   0.875000000000000   1.0000000
N2   N   0.722222598266919   0.944445196533838   0.875000000000000   1.0000000
N2   N   0.888885545246090   0.444438416460311   0.875000000000000   1.0000000
N2   N   0.054717745942198   0.444620687186652   0.375000000000000   1.0000000
N2   N   0.221588394831219   0.943176789662438   0.375000000000000   1.0000000
N2   N   0.555741962776609   0.944537648054972   0.375000000000000   1.0000000
N2   N   0.381482688311368   0.451850645021960   0.375000000000000   1.0000000
N2   N   0.888795685278357   0.944537648054972   0.375000000000000   1.0000000
N2   N   0.725951874154199   0.445207171404780   0.375000000000000   1.0000000
N2   N   0.222224411362036   0.611108921971299   0.875000000000000   1.0000000
N2   N   0.055554245456448   0.111112117927812   0.875000000000000   1.0000000
N2   N   0.555554648997919   0.611109297995832   0.875000000000000   1.0000000
N2   N   0.388892637390935   0.111115775383129   0.875000000000000   1.0000000
N2   N   0.888884510609256   0.611108921971299   0.875000000000000   1.0000000
N2   N   0.055669793607950   0.611339587215906   0.375000000000000   1.0000000
N2   N   0.722222598266919   0.111110735066417   0.875000000000000   1.0000000
N2   N   0.219255297250581   0.107381459179137   0.375000000000000   1.0000000
N2   N   0.388126161928549   0.614078036082754   0.375000000000000   1.0000000
N2   N   0.725951874154199   0.614078036082754   0.375000000000000   1.0000000
N2   N   0.555784633403543   0.110601957605978   0.375000000000000   1.0000000
N2   N   0.388892637390935   0.611110195341148   0.875000000000000   1.0000000
N2   N   0.888630216890774   0.110981775112059   0.375000000000000   1.0000000
N2   N   0.222225830252390   0.777779581792859   0.875000000000000   1.0000000
N2   N   0.055554245456448   0.277775460861972   0.875000000000000   1.0000000
N2   N   0.388886102203172   0.277772204406358   0.875000000000000   1.0000000
N2   N   0.555557872471364   0.777779087876888   0.875000000000000   1.0000000
N2   N   0.888885545246090   0.777780462119117   0.875000000000000   1.0000000
N2   N   0.722221215405523   0.277775460861972   0.875000000000000   1.0000000
N2   N   0.055669793607950   0.777663539725386   0.375000000000000   1.0000000
N2   N   0.388712646146677   0.778615587391138   0.375000000000000   1.0000000
N2   N   0.221249754717000   0.277291544025164   0.375000000000000   1.0000000
N2   N   0.722731375727358   0.778516009130900   0.375000000000000   1.0000000
N2   N   0.556041789308172   0.277291544025164   0.375000000000000   1.0000000
N2   N   0.888795685278357   0.277591370556726   0.375000000000000   1.0000000
N2   N   0.055552871214220   0.444438416460311   0.875000000000000   1.0000000
N2   N   0.222224411362036   0.944448822724073   0.875000000000000   1.0000000
N2   N   0.555558500766140   0.944445917049734   0.875000000000000   1.0000000
N2   N   0.388886102203172   0.444447231130156   0.875000000000000   1.0000000
N2   N   0.888887416283595   0.944445917049734   0.875000000000000   1.0000000
N2   N   0.054717745942198   0.943430392088875   0.375000000000000   1.0000000
N2   N   0.722217557950206   0.444440695942394   0.875000000000000   1.0000000
N2   N   0.388712646146677   0.943430392088875   0.375000000000000   1.0000000
N2   N   0.219255297250581   0.445207171404780   0.375000000000000   1.0000000
N2   N   0.221588394831219   0.611744938502117   0.375000000000000   1.0000000
N2   N   0.570367956710599   0.451850645021960   0.375000000000000   1.0000000
N2   N   0.722351558221277   0.944703116442555   0.375000000000000   1.0000000
N2   N   0.889902941244454   0.444620687186652   0.375000000000000   1.0000000
N2   N   0.055553751540476   0.611107503080946   0.875000000000000   1.0000000
N2   N   0.222223137992187   0.111115775383129   0.875000000000000   1.0000000
N2   N   0.722217557950206   0.611110195341148   0.875000000000000   1.0000000
N2   N   0.555557872471364   0.111112117927812   0.875000000000000   1.0000000
N2   N   0.888888136799491   0.111110735066417   0.875000000000000   1.0000000
B2   B   0.108529832074362   0.053313227780940   0.375000000000000   1.0000000
B2   B   0.617308929761718   0.562397488774036   0.375000000000000   1.0000000
B2   B   0.444783395706578   0.053313227780940   0.375000000000000   1.0000000
B2   B   0.945147942170599   0.555721328049202   0.375000000000000   1.0000000
B2   B   0.777777777777779   0.055555555555557   0.375000000000000   1.0000000
B2   B   0.111111111111114   0.722222222222221   0.875000000000000   1.0000000
B2   B   0.444453693431218   0.722249528760739   0.875000000000000   1.0000000
B2   B   0.277752245573896   0.222199692654104   0.875000000000000   1.0000000
B2   B   0.777795835329514   0.722249528760739   0.875000000000000   1.0000000
B2   B   0.611129457010149   0.222203876323186   0.875000000000000   1.0000000
B2   B   0.944424756950513   0.222209459420002   0.875000000000000   1.0000000
B2   B   0.277612005284134   0.722759947454732   0.375000000000000   1.0000000
B2   B   0.109207354455012   0.221270343894174   0.375000000000000   1.0000000
B2   B   0.445088559012311   0.216024403571618   0.375000000000000   1.0000000
B2   B   0.612062989439161   0.724125978878323   0.375000000000000   1.0000000
B2   B   0.945147942170599   0.722759947454732   0.375000000000000   1.0000000
B2   B   0.778013213456270   0.221756383380158   0.375000000000000   1.0000000
B2   B   0.111101918076128   0.888880908176566   0.875000000000000   1.0000000
B2   B   0.444454314602533   0.888893823967935   0.875000000000000   1.0000000
B2   B   0.277752245573896   0.388885886253128   0.875000000000000   1.0000000
B2   B   0.611133640679231   0.388885886253128   0.875000000000000   1.0000000
B2   B   0.777784702469490   0.888908576382816   0.875000000000000   1.0000000
B2   B   0.944439509365394   0.388879018730796   0.875000000000000   1.0000000
B2   B   0.108529832074362   0.388549937626751   0.375000000000000   1.0000000
B2   B   0.277612005284134   0.888185391162730   0.375000000000000   1.0000000
B2   B   0.611576949953178   0.889590163409440   0.375000000000000   1.0000000
B2   B   0.944275651423404   0.889057681909924   0.375000000000000   1.0000000
B2   B   0.780020105552396   0.388549937626751   0.375000000000000   1.0000000
B2   B   0.277766156798652   0.555567176534684   0.875000000000000   1.0000000
B2   B   0.111083804572597   0.055537498003822   0.875000000000000   1.0000000
B2   B   0.611133640679231   0.555581087759439   0.875000000000000   1.0000000
B2   B   0.444453693431218   0.055537498003822   0.875000000000000   1.0000000
B2   B   0.944452425156762   0.555554343232891   0.875000000000000   1.0000000
B2   B   0.110573385878603   0.555721328049202   0.375000000000000   1.0000000
B2   B   0.777777777777779   0.055555555555557   0.875000000000000   1.0000000
B2   B   0.276503643170405   0.053007286340816   0.375000000000000   1.0000000
B2   B   0.445088559012311   0.562397488774036   0.375000000000000   1.0000000
B2   B   0.780326046992519   0.556829690162932   0.375000000000000   1.0000000
B2   B   0.611576949953178   0.055320119877066   0.375000000000000   1.0000000
B2   B   0.444447447080201   0.555581087759439   0.875000000000000   1.0000000
B2   B   0.943743169923888   0.055320119877066   0.375000000000000   1.0000000
B2   B   0.277778990100445   0.722231415257208   0.875000000000000   1.0000000
B2   B   0.111074419313043   0.222203876323186   0.875000000000000   1.0000000
B2   B   0.444447447080201   0.222199692654104   0.875000000000000   1.0000000
B2   B   0.611129457010149   0.722258914020292   0.875000000000000   1.0000000
B2   B   0.944452425156762   0.722231415257208   0.875000000000000   1.0000000
B2   B   0.777784702469490   0.222209459420002   0.875000000000000   1.0000000
B2   B   0.111111111111114   0.722222222222221   0.375000000000000   1.0000000
B2   B   0.444783395706578   0.724803501258974   0.375000000000000   1.0000000
B2   B   0.270935844559299   0.216024403571618   0.375000000000000   1.0000000
B2   B   0.780020105552396   0.724803501258974   0.375000000000000   1.0000000
B2   B   0.612062989439161   0.221270343894174   0.375000000000000   1.0000000
B2   B   0.943743169923888   0.221756383380158   0.375000000000000   1.0000000
B2   B   0.111083804572597   0.388879639902111   0.875000000000000   1.0000000
B2   B   0.277778990100445   0.888880908176566   0.875000000000000   1.0000000
B2   B   0.611123873913334   0.888908576382816   0.875000000000000   1.0000000
B2   B   0.444444444444443   0.388888888888886   0.875000000000000   1.0000000
B2   B   0.944439509365394   0.888893823967935   0.875000000000000   1.0000000
B2   B   0.110573385878603   0.888185391162730   0.375000000000000   1.0000000
B2   B   0.777795835329514   0.388879639902111   0.875000000000000   1.0000000
B2   B   0.444782030486520   0.889057681909924   0.375000000000000   1.0000000
B2   B   0.270935844559299   0.388244774321017   0.375000000000000   1.0000000
B2   B   0.276503643170405   0.556829690162932   0.375000000000000   1.0000000
B2   B   0.617308929761718   0.388244774321017   0.375000000000000   1.0000000
B2   B   0.778013213456270   0.889590163409440   0.375000000000000   1.0000000
B2   B   0.944275651423404   0.388551302846808   0.375000000000000   1.0000000
B2   B   0.111101918076128   0.555554343232891   0.875000000000000   1.0000000
B2   B   0.277766156798652   0.055532313597296   0.875000000000000   1.0000000
B2   B   0.777801019736039   0.555567176534684   0.875000000000000   1.0000000
B2   B   0.611123873913334   0.055548630863846   0.875000000000000   1.0000000
B2   B   0.944424756950513   0.055548630863846   0.875000000000000   1.0000000
B2   B   0.055481377288418   0.111046586750453   0.124899803924443   1.0000000
B2   B   0.555613213619015   0.611226427238036   0.124805477261362   1.0000000
B2   B   0.388845443064197   0.110976596597383   0.124945785667005   1.0000000
B2   B   0.888986769766786   0.611160051550063   0.124925429397552   1.0000000
B2   B   0.722232862712986   0.111100470620350   0.124893670039733   1.0000000
B2   B   0.055569426143103   0.777763907190232   0.625086312525403   1.0000000
B2   B   0.388856396568481   0.777808002654484   0.625095894070091   1.0000000
B2   B   0.222106906095299   0.277720119714321   0.625194522738637   1.0000000
B2   B   0.722286746582883   0.777851956044918   0.625100196075558   1.0000000
B2   B   0.555613213619015   0.277720119714321   0.625194522738637   1.0000000
B2   B   0.888892200683977   0.277784401367961   0.625115746316658   1.0000000
B2   B   0.222194481047130   0.777763907190232   0.124913687474597   1.0000000
B2   B   0.055481377288418   0.277768123871301   0.124899803924443   1.0000000
B2   B   0.388848641116875   0.277697282233749   0.124039356748851   1.0000000
B2   B   0.555565209462034   0.777851956044918   0.124899803924443   1.0000000
B2   B   0.888951606085996   0.777808002654484   0.124904105929909   1.0000000
B2   B   0.722286746582883   0.277768123871301   0.124899803924443   1.0000000
B2   B   0.055525330678852   0.944381727247332   0.625095894070091   1.0000000
B2   B   0.388856396568481   0.944381727247332   0.625095894070091   1.0000000
B2   B   0.222131153533178   0.444487890269131   0.625054214332995   1.0000000
B2   B   0.555636051099587   0.444484692216454   0.625960643251149   1.0000000
B2   B   0.722232862712986   0.944465725425978   0.625106329960267   1.0000000
B2   B   0.888951606085996   0.444476936764848   0.625095894070091   1.0000000
B2   B   0.055525330678852   0.444476936764848   0.124904105929909   1.0000000
B2   B   0.222173281783272   0.944346563566543   0.124925429397552   1.0000000
B2   B   0.555548931965374   0.944441132649352   0.124884253683342   1.0000000
B2   B   0.388848641116875   0.444484692216454   0.124039356748851   1.0000000
B2   B   0.888892200683977   0.944441132649352   0.124884253683342   1.0000000
B2   B   0.722356736735953   0.444487890269131   0.124945785667005   1.0000000
B2   B   0.222173281783272   0.611160051550063   0.625074570602448   1.0000000
B2   B   0.055481377288418   0.111046586750453   0.625100196075558   1.0000000
B2   B   0.555613213619015   0.611226427238036   0.625194522738637   1.0000000
B2   B   0.388845443064197   0.110976596597383   0.625054214332995   1.0000000
B2   B   0.888986769766786   0.611160051550063   0.625074570602448   1.0000000
B2   B   0.055569426143103   0.611138852286205   0.124913687474597   1.0000000
B2   B   0.722232862712986   0.111100470620350   0.625106329960267   1.0000000
B2   B   0.222131153533178   0.110976596597383   0.124945785667005   1.0000000
B2   B   0.388845443064197   0.611202179800157   0.124945785667005   1.0000000
B2   B   0.722356736735953   0.611202179800157   0.124945785667005   1.0000000
B2   B   0.555565209462034   0.111046586750453   0.124899803924443   1.0000000
B2   B   0.388845443064197   0.611202179800157   0.625054214332995   1.0000000
B2   B   0.888867607907351   0.111100470620350   0.124893670039733   1.0000000
B2   B   0.222194481047130   0.777763907190232   0.625086312525403   1.0000000
B2   B   0.055481377288418   0.277768123871301   0.625100196075558   1.0000000
B2   B   0.388848641116875   0.277697282233749   0.625960643251149   1.0000000
B2   B   0.555565209462034   0.777851956044918   0.625100196075558   1.0000000
B2   B   0.888951606085996   0.777808002654484   0.625095894070091   1.0000000
B2   B   0.722286746582883   0.277768123871301   0.625100196075558   1.0000000
B2   B   0.055569426143103   0.777763907190232   0.124913687474597   1.0000000
B2   B   0.388856396568481   0.777808002654484   0.124904105929909   1.0000000
B2   B   0.222106906095299   0.277720119714321   0.124805477261362   1.0000000
B2   B   0.722286746582883   0.777851956044918   0.124899803924443   1.0000000
B2   B   0.555613213619015   0.277720119714321   0.124805477261362   1.0000000
B2   B   0.888892200683977   0.277784401367961   0.124884253683342   1.0000000
B2   B   0.055525330678852   0.444476936764848   0.625095894070091   1.0000000
B2   B   0.222173281783272   0.944346563566543   0.625074570602448   1.0000000
B2   B   0.555548931965374   0.944441132649352   0.625115746316658   1.0000000
B2   B   0.388848641116875   0.444484692216454   0.625960643251149   1.0000000
B2   B   0.888892200683977   0.944441132649352   0.625115746316658   1.0000000
B2   B   0.055525330678852   0.944381727247332   0.124904105929909   1.0000000
B2   B   0.722356736735953   0.444487890269131   0.625054214332995   1.0000000
B2   B   0.388856396568481   0.944381727247332   0.124904105929909   1.0000000
B2   B   0.222131153533178   0.444487890269131   0.124945785667005   1.0000000
B2   B   0.222173281783272   0.611160051550063   0.124925429397552   1.0000000
B2   B   0.555636051099587   0.444484692216454   0.124039356748851   1.0000000
B2   B   0.722232862712986   0.944465725425978   0.124893670039733   1.0000000
B2   B   0.888951606085996   0.444476936764848   0.124904105929909   1.0000000
B2   B   0.055569426143103   0.611138852286205   0.625086312525403   1.0000000
B2   B   0.222131153533178   0.110976596597383   0.625054214332995   1.0000000
B2   B   0.722356736735953   0.611202179800157   0.625054214332995   1.0000000
B2   B   0.555565209462034   0.111046586750453   0.625100196075558   1.0000000
B2   B   0.888867607907351   0.111100470620350   0.625106329960267   1.0000000


