data_1
_audit_creation_method   'vasp2cif'
_cell_length_a    14.93631414619966
_cell_length_b    14.936314146199727
_cell_length_c    13.341276283792837
_cell_angle_alpha    90.0
_cell_angle_beta    90.0
_cell_angle_gamma    119.99999999999984

_symmetry_space_group_name_H-M    'P 1'
loop_
_atom_site_label
_atom_site_type_symbol
_atom_site_fract_x
_atom_site_fract_y
_atom_site_fract_z
_atom_site_occupancy
Ga2   Ga   0.487762209062534   0.410547771197931   0.375000000000000   1.0000000
N2   N   0.111172051453130   0.055581078940447   0.124887776611208   1.0000000
N2   N   0.611179116205943   0.555623374435005   0.124760282785108   1.0000000
N2   N   0.444493648300527   0.055550668888365   0.124916242218734   1.0000000
N2   N   0.944473836541628   0.555570147896219   0.125059940852741   1.0000000
N2   N   0.777836936416417   0.055585134874876   0.124967386133754   1.0000000
N2   N   0.111137711572934   0.722235522453132   0.625001758115351   1.0000000
N2   N   0.444493648300527   0.722276312745499   0.625083757781266   1.0000000
N2   N   0.277864389527515   0.222253005641302   0.624909940321507   1.0000000
N2   N   0.777826625421174   0.722259188197918   0.625008616292580   1.0000000
N2   N   0.611161181039723   0.222207860027810   0.625144660934732   1.0000000
N2   N   0.944510988601842   0.222254972377542   0.625035282103046   1.0000000
N2   N   0.277813451405824   0.722247489059153   0.124981416825534   1.0000000
N2   N   0.111199279445280   0.222266306389304   0.124927029450924   1.0000000
N2   N   0.444522350093810   0.222216599501658   0.124979677669163   1.0000000
N2   N   0.611161181039723   0.722286654345241   0.124855339065267   1.0000000
N2   N   0.944473836541628   0.722237021978746   0.125059940852741   1.0000000
N2   N   0.777831218430040   0.222239218236824   0.124999893855362   1.0000000
N2   N   0.111145771707332   0.888901479785179   0.625020344240635   1.0000000
N2   N   0.444488249369209   0.888910791351269   0.625002785465252   1.0000000
N2   N   0.277864389527515   0.388944717219541   0.624909940321507   1.0000000
N2   N   0.611179116205943   0.388889075104267   0.625239717214892   1.0000000
N2   N   0.777831218430040   0.888925333526544   0.625000106144638   1.0000000
N2   N   0.944494535643045   0.388910583489621   0.624993157347845   1.0000000
N2   N   0.111172051453130   0.388924305846011   0.124887776611208   1.0000000
N2   N   0.277813451405824   0.888899295679999   0.124981416825534   1.0000000
N2   N   0.611163435400495   0.888932760466905   0.124968620226936   1.0000000
N2   N   0.444630832811234   0.388982083072281   0.127252700599477   1.0000000
N2   N   0.944494535643045   0.888917285486753   0.125006842652156   1.0000000
N2   N   0.777826625421174   0.388900770556585   0.124991383707420   1.0000000
N2   N   0.277828958140516   0.555599499922123   0.625073810284294   1.0000000
N2   N   0.111172051453130   0.055581078940447   0.625112223388792   1.0000000
N2   N   0.611179116205943   0.555623374435005   0.625239717214892   1.0000000
N2   N   0.444493648300527   0.055550668888365   0.625083757781266   1.0000000
N2   N   0.944473836541628   0.555570147896219   0.624940059147259   1.0000000
N2   N   0.111145771707332   0.555577625255481   0.124979655759366   1.0000000
N2   N   0.777836936416417   0.055585134874876   0.625032613866245   1.0000000
N2   N   0.277828958140516   0.055562791551730   0.124926189715706   1.0000000
N2   N   0.444522350093810   0.555639083925488   0.124979677669163   1.0000000
N2   N   0.777803979508607   0.555568656420971   0.125034599323282   1.0000000
N2   N   0.611163435400495   0.055564008266919   0.124968620226936   1.0000000
N2   N   0.444522350093810   0.555639083925488   0.625020322330837   1.0000000
N2   N   0.944510988601842   0.055589349557636   0.124964717896954   1.0000000
N2   N   0.277813451405824   0.722247489059153   0.625018583174465   1.0000000
N2   N   0.111199279445280   0.222266306389304   0.625072970549077   1.0000000
N2   N   0.444522350093810   0.222216599501658   0.625020322330837   1.0000000
N2   N   0.611161181039723   0.722286654345241   0.625144660934732   1.0000000
N2   N   0.944473836541628   0.722237021978746   0.624940059147259   1.0000000
N2   N   0.777831218430040   0.222239218236824   0.625000106144638   1.0000000
N2   N   0.111137711572934   0.722235522453132   0.124998241884649   1.0000000
N2   N   0.444493648300527   0.722276312745499   0.124916242218734   1.0000000
N2   N   0.277864389527515   0.222253005641302   0.125090059678494   1.0000000
N2   N   0.777826625421174   0.722259188197918   0.124991383707420   1.0000000
N2   N   0.611161181039723   0.222207860027810   0.124855339065267   1.0000000
N2   N   0.944510988601842   0.222254972377542   0.124964717896954   1.0000000
N2   N   0.111172051453130   0.388924305846011   0.625112223388792   1.0000000
N2   N   0.277813451405824   0.888899295679999   0.625018583174465   1.0000000
N2   N   0.611163435400495   0.888932760466905   0.625031379773064   1.0000000
N2   N   0.444630832811234   0.388982083072281   0.622747299400523   1.0000000
N2   N   0.944494535643045   0.888917285486753   0.624993157347845   1.0000000
N2   N   0.111145771707332   0.888901479785179   0.124979655759366   1.0000000
N2   N   0.777826625421174   0.388900770556585   0.625008616292580   1.0000000
N2   N   0.444488249369209   0.888910791351269   0.124997214534747   1.0000000
N2   N   0.277864389527515   0.388944717219541   0.125090059678494   1.0000000
N2   N   0.277828958140516   0.555599499922123   0.124926189715706   1.0000000
N2   N   0.611179116205943   0.388889075104267   0.124760282785108   1.0000000
N2   N   0.777831218430040   0.888925333526544   0.124999893855362   1.0000000
N2   N   0.944494535643045   0.388910583489621   0.125006842652156   1.0000000
N2   N   0.111145771707332   0.555577625255481   0.625020344240635   1.0000000
N2   N   0.277828958140516   0.055562791551730   0.625073810284294   1.0000000
N2   N   0.777803979508607   0.555568656420971   0.624965400676718   1.0000000
N2   N   0.611163435400495   0.055564008266919   0.625031379773064   1.0000000
N2   N   0.944510988601842   0.055589349557636   0.625035282103046   1.0000000
N2   N   0.058647860398160   0.112815652816451   0.375000000000000   1.0000000
N2   N   0.556498630747641   0.619518723081909   0.375000000000000   1.0000000
N2   N   0.388499104728698   0.105576059717524   0.375000000000000   1.0000000
N2   N   0.886228195137299   0.609780764235321   0.375000000000000   1.0000000
N2   N   0.724545185803705   0.111432615947984   0.375000000000000   1.0000000
N2   N   0.055527396503048   0.777763921539238   0.875000000000000   1.0000000
N2   N   0.388867322102648   0.777766278479837   0.875000000000000   1.0000000
N2   N   0.222197233622960   0.277765283478148   0.875000000000000   1.0000000
N2   N   0.722201246351025   0.777765182714757   0.875000000000000   1.0000000
N2   N   0.555533108261037   0.277769294834538   0.875000000000000   1.0000000
N2   N   0.888868180654731   0.277769172945162   0.875000000000000   1.0000000
N2   N   0.221017014175834   0.777175173754585   0.375000000000000   1.0000000
N2   N   0.058647860398160   0.279165540915045   0.375000000000000   1.0000000
N2   N   0.390653154193963   0.269986920740528   0.375000000000000   1.0000000
N2   N   0.556618645910216   0.781972073721049   0.375000000000000   1.0000000
N2   N   0.888990548496696   0.778351454641081   0.375000000000000   1.0000000
N2   N   0.724110265582214   0.276546010691010   0.375000000000000   1.0000000
N2   N   0.055530201816898   0.944429995339161   0.875000000000000   1.0000000
N2   N   0.388867322102648   0.944434376956145   0.875000000000000   1.0000000
N2   N   0.222196743315817   0.444430502092472   0.875000000000000   1.0000000
N2   N   0.555524669353593   0.444429001343461   0.875000000000000   1.0000000
N2   N   0.722199128475551   0.944431680922346   0.875000000000000   1.0000000
N2   N   0.888867321504682   0.444433636933728   0.875000000000000   1.0000000
N2   N   0.056230760624497   0.445044388625304   0.375000000000000   1.0000000
N2   N   0.221333320501917   0.942637898435623   0.375000000000000   1.0000000
N2   N   0.556617389162373   0.944975361247851   0.375000000000000   1.0000000
N2   N   0.390653154193963   0.453999566786771   0.375000000000000   1.0000000
N2   N   0.891271872318548   0.946332568256987   0.375000000000000   1.0000000
N2   N   0.720807742894111   0.441990480755484   0.375000000000000   1.0000000
N2   N   0.222197045340516   0.611097596514312   0.875000000000000   1.0000000
N2   N   0.055530302446978   0.111097198071685   0.875000000000000   1.0000000
N2   N   0.555533108261037   0.611097146759836   0.875000000000000   1.0000000
N2   N   0.388868304899136   0.111105413597680   0.875000000000000   1.0000000
N2   N   0.888862561720493   0.611097947526916   0.875000000000000   1.0000000
N2   N   0.054092359167673   0.610708519519313   0.375000000000000   1.0000000
N2   N   0.722199128475551   0.111100780886540   0.875000000000000   1.0000000
N2   N   0.223357980329929   0.110274283327668   0.375000000000000   1.0000000
N2   N   0.388499104728698   0.616256378344517   0.375000000000000   1.0000000
N2   N   0.720807742894111   0.612150595471963   0.375000000000000   1.0000000
N2   N   0.556618645910216   0.107979905522503   0.375000000000000   1.0000000
N2   N   0.388868304899136   0.611096224634800   0.875000000000000   1.0000000
N2   N   0.891828989954913   0.112581161644128   0.375000000000000   1.0000000
N2   N   0.222195452799437   0.777764393066386   0.875000000000000   1.0000000
N2   N   0.055530302446978   0.277766437708629   0.875000000000000   1.0000000
N2   N   0.388869069410185   0.277775574643916   0.875000000000000   1.0000000
N2   N   0.555533017619802   0.777765474496153   0.875000000000000   1.0000000
N2   N   0.888867321504682   0.777767017904290   0.875000000000000   1.0000000
N2   N   0.722201246351025   0.277769396969604   0.875000000000000   1.0000000
N2   N   0.054092359167673   0.776717172981694   0.375000000000000   1.0000000
N2   N   0.388528339700694   0.779254061396002   0.375000000000000   1.0000000
N2   N   0.226855492727307   0.280094413030321   0.375000000000000   1.0000000
N2   N   0.724110265582214   0.780897588224539   0.375000000000000   1.0000000
N2   N   0.556498630747641   0.270313240999068   0.375000000000000   1.0000000
N2   N   0.891271872318548   0.278272637394897   0.375000000000000   1.0000000
N2   N   0.055530201816898   0.444433539811066   0.875000000000000   1.0000000
N2   N   0.222197045340516   0.944432782159538   0.875000000000000   1.0000000
N2   N   0.555532885745336   0.944433109539332   0.875000000000000   1.0000000
N2   N   0.388869069410185   0.444426828099604   0.875000000000000   1.0000000
N2   N   0.888868180654731   0.944432341042905   0.875000000000000   1.0000000
N2   N   0.056230760624497   0.944519705332520   0.375000000000000   1.0000000
N2   N   0.722198346846562   0.444433280767318   0.875000000000000   1.0000000
N2   N   0.388528339700694   0.942607611638027   0.375000000000000   1.0000000
N2   N   0.223357980329929   0.446417030335596   0.375000000000000   1.0000000
N2   N   0.221333320501917   0.612028755399630   0.375000000000000   1.0000000
N2   N   0.724545185803705   0.946445903189057   0.375000000000000   1.0000000
N2   N   0.888990548496696   0.443972427188949   0.375000000000000   1.0000000
N2   N   0.055527396503048   0.611096808297146   0.875000000000000   1.0000000
N2   N   0.222196743315817   0.111099574556680   0.875000000000000   1.0000000
N2   N   0.722198346846562   0.611098399412578   0.875000000000000   1.0000000
N2   N   0.555533017619802   0.111100876456984   0.875000000000000   1.0000000
N2   N   0.888865843809995   0.111099588571669   0.875000000000000   1.0000000
B2   B   0.112881361051591   0.055946825678100   0.375000000000000   1.0000000
B2   B   0.611630999068253   0.566425617259815   0.375000000000000   1.0000000
B2   B   0.445105228622134   0.052456606983654   0.375000000000000   1.0000000
B2   B   0.943081803696512   0.554972648637349   0.375000000000000   1.0000000
B2   B   0.780821844939164   0.057077589136250   0.375000000000000   1.0000000
B2   B   0.111091051317962   0.722212192325645   0.875000000000000   1.0000000
B2   B   0.444414233230390   0.722207268956765   0.875000000000000   1.0000000
B2   B   0.277730361667546   0.222200936116517   0.875000000000000   1.0000000
B2   B   0.777767942191759   0.722230226924758   0.875000000000000   1.0000000
B2   B   0.611087948685554   0.222199704371043   0.875000000000000   1.0000000
B2   B   0.944431812816525   0.222211363152215   0.875000000000000   1.0000000
B2   B   0.277239965566563   0.722740498017160   0.375000000000000   1.0000000
B2   B   0.115628570617992   0.224480951975661   0.375000000000000   1.0000000
B2   B   0.443645267723799   0.215004612839756   0.375000000000000   1.0000000
B2   B   0.613326507710611   0.728965739880949   0.375000000000000   1.0000000
B2   B   0.943081803696512   0.721442488392497   0.375000000000000   1.0000000
B2   B   0.780487248304173   0.222151847079612   0.375000000000000   1.0000000
B2   B   0.111091885699580   0.888885730683943   0.875000000000000   1.0000000
B2   B   0.444418372181382   0.888875852757356   0.875000000000000   1.0000000
B2   B   0.277730361667546   0.388862758884357   0.875000000000000   1.0000000
B2   B   0.611087694482956   0.388859677473396   0.875000000000000   1.0000000
B2   B   0.777766786098361   0.888892038393671   0.875000000000000   1.0000000
B2   B   0.944434795875071   0.388873933277827   0.875000000000000   1.0000000
B2   B   0.112881361051591   0.390267868706819   0.375000000000000   1.0000000
B2   B   0.277239965566563   0.887832800882731   0.375000000000000   1.0000000
B2   B   0.613300192732147   0.891716478040473   0.375000000000000   1.0000000
B2   B   0.945550201314744   0.889742223646374   0.375000000000000   1.0000000
B2   B   0.778365167374556   0.387512966634961   0.375000000000000   1.0000000
B2   B   0.277745701342965   0.555533356723416   0.875000000000000   1.0000000
B2   B   0.111088232230957   0.055549231874335   0.875000000000000   1.0000000
B2   B   0.611087694482956   0.555561350342890   0.875000000000000   1.0000000
B2   B   0.444414233230390   0.055540297606962   0.875000000000000   1.0000000
B2   B   0.944432795199106   0.555542950947118   0.875000000000000   1.0000000
B2   B   0.110493251178365   0.555907866924304   0.375000000000000   1.0000000
B2   B   0.777763560045935   0.055548446689637   0.875000000000000   1.0000000
B2   B   0.277549000287601   0.053445298209497   0.375000000000000   1.0000000
B2   B   0.443645267723799   0.561973988217377   0.375000000000000   1.0000000
B2   B   0.774893014836821   0.554113174085079   0.375000000000000   1.0000000
B2   B   0.613300192732147   0.054917048025002   0.375000000000000   1.0000000
B2   B   0.444403222009835   0.555537761885742   0.875000000000000   1.0000000
B2   B   0.947732893505132   0.057546572024208   0.375000000000000   1.0000000
B2   B   0.277752183180519   0.722206281710597   0.875000000000000   1.0000000
B2   B   0.111084983902399   0.222209158617864   0.875000000000000   1.0000000
B2   B   0.444403222009835   0.222198793457428   0.875000000000000   1.0000000
B2   B   0.611087948685554   0.722221577647839   0.875000000000000   1.0000000
B2   B   0.944432795199106   0.722223177585325   0.875000000000000   1.0000000
B2   B   0.777766786098361   0.222208081038020   0.875000000000000   1.0000000
B2   B   0.109938007743085   0.721635670538207   0.375000000000000   1.0000000
B2   B   0.445105228622134   0.725981954971814   0.375000000000000   1.0000000
B2   B   0.281615562911201   0.222475855859741   0.375000000000000   1.0000000
B2   B   0.778365167374556   0.724185534072925   0.375000000000000   1.0000000
B2   B   0.613326507710611   0.217694101162989   0.375000000000000   1.0000000
B2   B   0.947732893505132   0.223519654814259   0.375000000000000   1.0000000
B2   B   0.111088232230957   0.388872333689951   0.875000000000000   1.0000000
B2   B   0.277752183180519   0.888879234803251   0.875000000000000   1.0000000
B2   B   0.611088907918768   0.888880854874139   0.875000000000000   1.0000000
B2   B   0.444380697695231   0.388857015514280   0.875000000000000   1.0000000
B2   B   0.944434795875071   0.888894195930571   0.875000000000000   1.0000000
B2   B   0.110493251178365   0.887918717587390   0.375000000000000   1.0000000
B2   B   0.777767942191759   0.388871048600330   0.875000000000000   1.0000000
B2   B   0.445162690808421   0.889248012070875   0.375000000000000   1.0000000
B2   B   0.281615562911201   0.392473040384788   0.375000000000000   1.0000000
B2   B   0.277549000287601   0.557437035411439   0.375000000000000   1.0000000
B2   B   0.611630999068253   0.378538715141765   0.375000000000000   1.0000000
B2   B   0.780487248304173   0.891668734557889   0.375000000000000   1.0000000
B2   B   0.945550201314744   0.389141311001699   0.375000000000000   1.0000000
B2   B   0.111091885699580   0.555539488348966   0.875000000000000   1.0000000
B2   B   0.277745701342965   0.055545677952884   0.875000000000000   1.0000000
B2   B   0.777765099089235   0.555549216211286   0.875000000000000   1.0000000
B2   B   0.611088907918768   0.055541386377957   0.875000000000000   1.0000000
B2   B   0.944431812816525   0.055553782997646   0.875000000000000   1.0000000
B2   B   0.055656302418826   0.111175114119375   0.125002680164869   1.0000000
B2   B   0.555539444592306   0.611222280574684   0.124805881556328   1.0000000
B2   B   0.388894243722650   0.111062378449435   0.124989961326646   1.0000000
B2   B   0.888985104006230   0.611159218669787   0.125008860072441   1.0000000
B2   B   0.722270937588834   0.111111997683664   0.124986745505745   1.0000000
B2   B   0.055628496185522   0.777825553264439   0.624986295893959   1.0000000
B2   B   0.388913425991620   0.777805804081177   0.625009484982006   1.0000000
B2   B   0.222317801280384   0.277825567306859   0.624727886849052   1.0000000
B2   B   0.722269331327525   0.777858211792047   0.625077501014181   1.0000000
B2   B   0.555539444592306   0.277650497350957   0.625194118443672   1.0000000
B2   B   0.888969185719125   0.277789757418948   0.624995241486470   1.0000000
B2   B   0.222267150653143   0.777800241993239   0.125002131498320   1.0000000
B2   B   0.055656302418826   0.277814521632788   0.125002680164869   1.0000000
B2   B   0.388833664890094   0.277605464864716   0.126084847423113   1.0000000
B2   B   0.555572639724051   0.777842841752713   0.124933549444003   1.0000000
B2   B   0.888976980876697   0.777855319366557   0.125003477659174   1.0000000
B2   B   0.722269331327525   0.277744452868813   0.124922498985820   1.0000000
B2   B   0.055638239140554   0.944512393415321   0.625007712490944   1.0000000
B2   B   0.388913425991620   0.944440955243781   0.625009484982006   1.0000000
B2   B   0.222291732855708   0.444473400790518   0.624942120905851   1.0000000
B2   B   0.555739951187060   0.444536642260194   0.625060634339131   1.0000000
B2   B   0.722270937588834   0.944492273238506   0.625013254494255   1.0000000
B2   B   0.888976980876697   0.444454994843475   0.624996522340825   1.0000000
B2   B   0.055638239140554   0.444459179058562   0.124992287509057   1.0000000
B2   B   0.222270419238191   0.944474668083181   0.125001818881400   1.0000000
B2   B   0.555585573662064   0.944459453497696   0.124997798398469   1.0000000
B2   B   0.388833664890094   0.444561533358714   0.126084847423113   1.0000000
B2   B   0.888969185719125   0.944512761633512   0.125004758513530   1.0000000
B2   B   0.722341165572314   0.444461614243587   0.124773459327924   1.0000000
B2   B   0.222270419238191   0.611129084488345   0.624998181118600   1.0000000
B2   B   0.055656302418826   0.111175114119375   0.624997319835131   1.0000000
B2   B   0.555539444592306   0.611222280574684   0.625194118443672   1.0000000
B2   B   0.388894243722650   0.111062378449435   0.625010038673353   1.0000000
B2   B   0.888985104006230   0.611159218669787   0.624991139927557   1.0000000
B2   B   0.055628496185522   0.611136276254419   0.125013704106041   1.0000000
B2   B   0.722270937588834   0.111111997683664   0.625013254494255   1.0000000
B2   B   0.222291732855708   0.111151665398525   0.125057879094150   1.0000000
B2   B   0.388894243722650   0.611165198606558   0.124989961326646   1.0000000
B2   B   0.722341165572314   0.611212884662062   0.124773459327924   1.0000000
B2   B   0.555572639724051   0.111063131304673   0.124933549444003   1.0000000
B2   B   0.388894243722650   0.611165198606558   0.625010038673353   1.0000000
B2   B   0.888970096502689   0.111151714918016   0.124996679551982   1.0000000
B2   B   0.222267150653143   0.777800241993239   0.624997868501680   1.0000000
B2   B   0.055656302418826   0.277814521632788   0.624997319835131   1.0000000
B2   B   0.388833664890094   0.277605464864716   0.623915152576886   1.0000000
B2   B   0.555572639724051   0.777842841752713   0.625066450555997   1.0000000
B2   B   0.888976980876697   0.777855319366557   0.624996522340825   1.0000000
B2   B   0.722269331327525   0.277744452868813   0.625077501014181   1.0000000
B2   B   0.055628496185522   0.777825553264439   0.125013704106041   1.0000000
B2   B   0.388913425991620   0.777805804081177   0.124990515017993   1.0000000
B2   B   0.222317801280384   0.277825567306859   0.125272113150949   1.0000000
B2   B   0.722269331327525   0.777858211792047   0.124922498985820   1.0000000
B2   B   0.555539444592306   0.277650497350957   0.124805881556328   1.0000000
B2   B   0.888969185719125   0.277789757418948   0.125004758513530   1.0000000
B2   B   0.055638239140554   0.444459179058562   0.625007712490944   1.0000000
B2   B   0.222270419238191   0.944474668083181   0.624998181118600   1.0000000
B2   B   0.555585573662064   0.944459453497696   0.625002201601531   1.0000000
B2   B   0.388833664890094   0.444561533358714   0.623915152576886   1.0000000
B2   B   0.888969185719125   0.944512761633512   0.624995241486470   1.0000000
B2   B   0.055638239140554   0.944512393415321   0.124992287509057   1.0000000
B2   B   0.722341165572314   0.444461614243587   0.625226540672076   1.0000000
B2   B   0.388913425991620   0.944440955243781   0.124990515017993   1.0000000
B2   B   0.222291732855708   0.444473400790518   0.125057879094150   1.0000000
B2   B   0.222270419238191   0.611129084488345   0.125001818881400   1.0000000
B2   B   0.555739951187060   0.444536642260194   0.124939365660869   1.0000000
B2   B   0.722270937588834   0.944492273238506   0.124986745505745   1.0000000
B2   B   0.888976980876697   0.444454994843475   0.125003477659174   1.0000000
B2   B   0.055628496185522   0.611136276254419   0.624986295893959   1.0000000
B2   B   0.222291732855708   0.111151665398525   0.624942120905851   1.0000000
B2   B   0.722341165572314   0.611212884662062   0.625226540672076   1.0000000
B2   B   0.555572639724051   0.111063131304673   0.625066450555997   1.0000000
B2   B   0.888970096502689   0.111151714918016   0.625003320448018   1.0000000


