data_1
_audit_creation_method   'vasp2cif'
_cell_length_a    14.93631414619966
_cell_length_b    14.936314146199727
_cell_length_c    13.341276283792837
_cell_angle_alpha    90.0
_cell_angle_beta    90.0
_cell_angle_gamma    119.99999999999984

_symmetry_space_group_name_H-M    'P 1'
loop_
_atom_site_label
_atom_site_type_symbol
_atom_site_fract_x
_atom_site_fract_y
_atom_site_fract_z
_atom_site_occupancy
Si2   Si   0.489593023810295   0.411463178571812   0.375000000000000   1.0000000
N2   N   0.111086752082268   0.055544379329660   0.124945709712381   1.0000000
N2   N   0.611224309600306   0.555745488882946   0.123565688107222   1.0000000
N2   N   0.444477045084593   0.055569204424435   0.124906394886232   1.0000000
N2   N   0.944436784426862   0.555541639853239   0.124896456060971   1.0000000
N2   N   0.777810663922517   0.055571998627926   0.124874328374131   1.0000000
N2   N   0.111108726041338   0.722221029687333   0.625100869718074   1.0000000
N2   N   0.444477045084593   0.722241173993494   0.625093605113768   1.0000000
N2   N   0.277689033521667   0.222172771601605   0.625429606692115   1.0000000
N2   N   0.777804704954591   0.722284455520128   0.625323397315600   1.0000000
N2   N   0.611157406333998   0.222194176679668   0.625380266619167   1.0000000
N2   N   0.944445705581356   0.222213937759426   0.625092568317258   1.0000000
N2   N   0.277796109409152   0.722227721837277   0.124909966317818   1.0000000
N2   N   0.111059649448849   0.222196491391089   0.124906570743947   1.0000000
N2   N   0.444465510970647   0.222230868895093   0.124634800046384   1.0000000
N2   N   0.611157406333998   0.722296562987658   0.124619733380832   1.0000000
N2   N   0.944436784426862   0.722228477906959   0.124896456060971   1.0000000
N2   N   0.777812773418778   0.222201478585470   0.124874910355737   1.0000000
N2   N   0.111111262997799   0.888896905880738   0.625100566539355   1.0000000
N2   N   0.444477130278072   0.888905231805701   0.625107493760344   1.0000000
N2   N   0.277689033521667   0.388849595253391   0.625429606692115   1.0000000
N2   N   0.611224309600306   0.388812154050688   0.626434311892778   1.0000000
N2   N   0.777812773418778   0.888944628166636   0.625125089644263   1.0000000
N2   N   0.944448720028366   0.388874410829787   0.625061625928426   1.0000000
N2   N   0.111086752082268   0.388875706085936   0.124945709712381   1.0000000
N2   N   0.277796109409152   0.888901720905203   0.124909966317818   1.0000000
N2   N   0.611149417356140   0.888925080860814   0.124897693345771   1.0000000
N2   N   0.444165623260036   0.388749478296682   0.123525757771964   1.0000000
N2   N   0.944448720028366   0.888907642531908   0.124938374071574   1.0000000
N2   N   0.777804704954591   0.388853582767791   0.124676602684400   1.0000000
N2   N   0.277788889301477   0.555552921827917   0.625088812043362   1.0000000
N2   N   0.111086752082268   0.055544379329660   0.625054290287620   1.0000000
N2   N   0.611224309600306   0.555745488882946   0.626434311892778   1.0000000
N2   N   0.444477045084593   0.055569204424435   0.625093605113768   1.0000000
N2   N   0.944436784426862   0.555541639853239   0.625103543939028   1.0000000
N2   N   0.111111262997799   0.555547690450391   0.124899433460645   1.0000000
N2   N   0.777810663922517   0.055571998627926   0.625125671625871   1.0000000
N2   N   0.277788889301477   0.055569300806897   0.124911187956638   1.0000000
N2   N   0.444465510970647   0.555567975408890   0.124634800046384   1.0000000
N2   N   0.777786848298974   0.555560090816155   0.124643458459937   1.0000000
N2   N   0.611149417356140   0.055557669828654   0.124897693345771   1.0000000
N2   N   0.444465510970647   0.555567975408890   0.625365199953615   1.0000000
N2   N   0.944445705581356   0.055565101155266   0.124907431682742   1.0000000
N2   N   0.277796109409152   0.722227721837277   0.625090033682182   1.0000000
N2   N   0.111059649448849   0.222196491391089   0.625093429256052   1.0000000
N2   N   0.444465510970647   0.222230868895093   0.625365199953615   1.0000000
N2   N   0.611157406333998   0.722296562987658   0.625380266619167   1.0000000
N2   N   0.944436784426862   0.722228477906959   0.625103543939028   1.0000000
N2   N   0.777812773418778   0.222201478585470   0.625125089644263   1.0000000
N2   N   0.111108726041338   0.722221029687333   0.124899130281926   1.0000000
N2   N   0.444477045084593   0.722241173993494   0.124906394886232   1.0000000
N2   N   0.277689033521667   0.222172771601605   0.124570393307886   1.0000000
N2   N   0.777804704954591   0.722284455520128   0.124676602684400   1.0000000
N2   N   0.611157406333998   0.222194176679668   0.124619733380832   1.0000000
N2   N   0.944445705581356   0.222213937759426   0.124907431682742   1.0000000
N2   N   0.111086752082268   0.388875706085936   0.625054290287620   1.0000000
N2   N   0.277796109409152   0.888901720905203   0.625090033682182   1.0000000
N2   N   0.611149417356140   0.888925080860814   0.625102306654229   1.0000000
N2   N   0.444165623260036   0.388749478296682   0.626474242228036   1.0000000
N2   N   0.944448720028366   0.888907642531908   0.625061625928426   1.0000000
N2   N   0.111111262997799   0.888896905880738   0.124899433460645   1.0000000
N2   N   0.777804704954591   0.388853582767791   0.625323397315600   1.0000000
N2   N   0.444477130278072   0.888905231805701   0.124892506239656   1.0000000
N2   N   0.277689033521667   0.388849595253391   0.124570393307886   1.0000000
N2   N   0.277788889301477   0.555552921827917   0.124911187956638   1.0000000
N2   N   0.611224309600306   0.388812154050688   0.123565688107222   1.0000000
N2   N   0.777812773418778   0.888944628166636   0.124874910355737   1.0000000
N2   N   0.944448720028366   0.388874410829787   0.124938374071574   1.0000000
N2   N   0.111111262997799   0.555547690450391   0.625100566539355   1.0000000
N2   N   0.277788889301477   0.055569300806897   0.625088812043362   1.0000000
N2   N   0.777786848298974   0.555560090816155   0.625356541540064   1.0000000
N2   N   0.611149417356140   0.055557669828654   0.625102306654229   1.0000000
N2   N   0.944445705581356   0.055565101155266   0.625092568317258   1.0000000
N2   N   0.058861480436308   0.112933481435545   0.375000000000000   1.0000000
N2   N   0.555748512320130   0.616782044977661   0.375000000000000   1.0000000
N2   N   0.388823178700386   0.107324142620354   0.375000000000000   1.0000000
N2   N   0.887136116684748   0.610234725009045   0.375000000000000   1.0000000
N2   N   0.724268277841210   0.111663610108386   0.375000000000000   1.0000000
N2   N   0.055562512009576   0.777780331471963   0.875000000000000   1.0000000
N2   N   0.388880924359317   0.777780256427336   0.875000000000000   1.0000000
N2   N   0.222223982212456   0.277778657772896   0.875000000000000   1.0000000
N2   N   0.722216188292014   0.777771594224105   0.875000000000000   1.0000000
N2   N   0.555540758253930   0.277763535062363   0.875000000000000   1.0000000
N2   N   0.888887078724784   0.277780544573828   0.875000000000000   1.0000000
N2   N   0.221547816855697   0.777440575094516   0.375000000000000   1.0000000
N2   N   0.058861480436308   0.279261332334098   0.375000000000000   1.0000000
N2   N   0.394657852600013   0.276486251227058   0.375000000000000   1.0000000
N2   N   0.556459471060475   0.780661376250228   0.375000000000000   1.0000000
N2   N   0.888301114931775   0.777391974857889   0.375000000000000   1.0000000
N2   N   0.723527236290761   0.277328251567250   0.375000000000000   1.0000000
N2   N   0.055554198442101   0.944439319083454   0.875000000000000   1.0000000
N2   N   0.388880924359317   0.944434001265318   0.875000000000000   1.0000000
N2   N   0.222217394912160   0.444450225318353   0.875000000000000   1.0000000
N2   N   0.555549807994515   0.444441570663922   0.875000000000000   1.0000000
N2   N   0.722212944010364   0.944438825319819   0.875000000000000   1.0000000
N2   N   0.888894780476139   0.444449999711089   0.875000000000000   1.0000000
N2   N   0.056596265377217   0.445013963716523   0.375000000000000   1.0000000
N2   N   0.221883230669188   0.943379821126808   0.375000000000000   1.0000000
N2   N   0.556628551874413   0.944980942603870   0.375000000000000   1.0000000
N2   N   0.394657852600013   0.451504934706290   0.375000000000000   1.0000000
N2   N   0.891004513076757   0.945852706025010   0.375000000000000   1.0000000
N2   N   0.719243378437467   0.443177559857100   0.375000000000000   1.0000000
N2   N   0.222215955913223   0.611115767079147   0.875000000000000   1.0000000
N2   N   0.055554088694561   0.111107525831145   0.875000000000000   1.0000000
N2   N   0.555540758253930   0.611110556524902   0.875000000000000   1.0000000
N2   N   0.388876766100012   0.111090391651380   0.875000000000000   1.0000000
N2   N   0.888908472626131   0.611120902979737   0.875000000000000   1.0000000
N2   N   0.054674182904838   0.610859712683810   0.375000000000000   1.0000000
N2   N   0.722212944010364   0.111107452023880   0.875000000000000   1.0000000
N2   N   0.225057979827203   0.112190068737150   0.375000000000000   1.0000000
N2   N   0.388823178700386   0.614832369413375   0.375000000000000   1.0000000
N2   N   0.719243378437467   0.609399151913702   0.375000000000000   1.0000000
N2   N   0.556459471060475   0.109131428143583   0.375000000000000   1.0000000
N2   N   0.388876766100012   0.611119707781974   0.875000000000000   1.0000000
N2   N   0.891696256006299   0.112514794669821   0.375000000000000   1.0000000
N2   N   0.222220511818694   0.777776922576015   0.875000000000000   1.0000000
N2   N   0.055554088694561   0.277779896196752   0.875000000000000   1.0000000
N2   N   0.388884637038666   0.277761216506665   0.875000000000000   1.0000000
N2   N   0.555543351902510   0.777775942368218   0.875000000000000   1.0000000
N2   N   0.888894780476139   0.777778114098386   0.875000000000000   1.0000000
N2   N   0.722216188292014   0.277777927401245   0.875000000000000   1.0000000
N2   N   0.054674182904838   0.777147803554364   0.375000000000000   1.0000000
N2   N   0.388860183362178   0.778953543077338   0.375000000000000   1.0000000
N2   N   0.227440073124330   0.280386703228833   0.375000000000000   1.0000000
N2   N   0.723527236290761   0.779532318056847   0.375000000000000   1.0000000
N2   N   0.555748512320130   0.272299800675805   0.375000000000000   1.0000000
N2   N   0.891004513076757   0.278485140385083   0.375000000000000   1.0000000
N2   N   0.055554198442101   0.444448212691975   0.875000000000000   1.0000000
N2   N   0.222215955913223   0.944433522167411   0.875000000000000   1.0000000
N2   N   0.555544181707489   0.944438757520409   0.875000000000000   1.0000000
N2   N   0.388884637038666   0.444456753865337   0.875000000000000   1.0000000
N2   N   0.888887078724784   0.944439867484291   0.875000000000000   1.0000000
N2   N   0.056596265377217   0.944915634994024   0.375000000000000   1.0000000
N2   N   0.722232267286125   0.444453933265959   0.875000000000000   1.0000000
N2   N   0.388860183362178   0.943239973618177   0.375000000000000   1.0000000
N2   N   0.225057979827203   0.446201244423389   0.375000000000000   1.0000000
N2   N   0.221883230669188   0.611836742875716   0.375000000000000   1.0000000
N2   N   0.724268277841210   0.945938001066159   0.375000000000000   1.0000000
N2   N   0.888301114931775   0.444242473407220   0.375000000000000   1.0000000
N2   N   0.055562512009576   0.611115513870948   0.875000000000000   1.0000000
N2   N   0.222217394912160   0.111100502927143   0.875000000000000   1.0000000
N2   N   0.722232267286125   0.611111667353502   0.875000000000000   1.0000000
N2   N   0.555543351902510   0.111100742867626   0.875000000000000   1.0000000
N2   N   0.888885218219966   0.111109275776654   0.875000000000000   1.0000000
B2   B   0.113914224901344   0.056796946082256   0.375000000000000   1.0000000
B2   B   0.606532496560432   0.556054856923047   0.375000000000000   1.0000000
B2   B   0.445201506785130   0.053730871747393   0.375000000000000   1.0000000
B2   B   0.943194767834284   0.555264900721855   0.375000000000000   1.0000000
B2   B   0.780340512054066   0.056836922693701   0.375000000000000   1.0000000
B2   B   0.111099993825837   0.722216663579583   0.875000000000000   1.0000000
B2   B   0.444436569557515   0.722184633958034   0.875000000000000   1.0000000
B2   B   0.277856941758849   0.222272173950835   0.875000000000000   1.0000000
B2   B   0.777724400625980   0.722137113171253   0.875000000000000   1.0000000
B2   B   0.611071790264237   0.222272157398138   0.875000000000000   1.0000000
B2   B   0.944454462244000   0.222239237016645   0.875000000000000   1.0000000
B2   B   0.277667069643475   0.722686344879261   0.375000000000000   1.0000000
B2   B   0.116097638044551   0.224715485688940   0.375000000000000   1.0000000
B2   B   0.445102391009228   0.217746428186261   0.375000000000000   1.0000000
B2   B   0.612297890660148   0.725686005758746   0.375000000000000   1.0000000
B2   B   0.943194767834284   0.721263200445767   0.375000000000000   1.0000000
B2   B   0.779736129876604   0.222857523604658   0.375000000000000   1.0000000
B2   B   0.111113062505622   0.888885796214690   0.875000000000000   1.0000000
B2   B   0.444430349464270   0.888881841398799   0.875000000000000   1.0000000
B2   B   0.277856941758849   0.388918101141342   0.875000000000000   1.0000000
B2   B   0.611061568999657   0.388928218535417   0.875000000000000   1.0000000
B2   B   0.777747624462180   0.888831056092942   0.875000000000000   1.0000000
B2   B   0.944431618876534   0.388909506548672   0.875000000000000   1.0000000
B2   B   0.113914224901344   0.390450612152416   0.375000000000000   1.0000000
B2   B   0.277667069643475   0.888314058097542   0.375000000000000   1.0000000
B2   B   0.612862856632455   0.890706166135977   0.375000000000000   1.0000000
B2   B   0.945164044297031   0.888964792067006   0.375000000000000   1.0000000
B2   B   0.776337372873569   0.388716589848676   0.375000000000000   1.0000000
B2   B   0.277804473385774   0.555550934607116   0.875000000000000   1.0000000
B2   B   0.111144804123057   0.055570209872949   0.875000000000000   1.0000000
B2   B   0.611061568999657   0.555466683797569   0.875000000000000   1.0000000
B2   B   0.444436569557515   0.055585268932817   0.875000000000000   1.0000000
B2   B   0.944414306442677   0.555556463668226   0.875000000000000   1.0000000
B2   B   0.110953928203826   0.555980033263028   0.375000000000000   1.0000000
B2   B   0.777759383832743   0.055546358583039   0.875000000000000   1.0000000
B2   B   0.278400262736708   0.054541520067446   0.375000000000000   1.0000000
B2   B   0.445102391009228   0.560689296156303   0.375000000000000   1.0000000
B2   B   0.774766066856271   0.554049700094803   0.375000000000000   1.0000000
B2   B   0.612862856632455   0.055490023829807   0.375000000000000   1.0000000
B2   B   0.444465623168138   0.555520360907906   0.875000000000000   1.0000000
B2   B   0.947568066868254   0.057190492483595   0.375000000000000   1.0000000
B2   B   0.277777866638166   0.722214090735325   0.875000000000000   1.0000000
B2   B   0.111169133265935   0.222251233299632   0.875000000000000   1.0000000
B2   B   0.444465623168138   0.222278595593567   0.875000000000000   1.0000000
B2   B   0.611071790264237   0.722132966199428   0.875000000000000   1.0000000
B2   B   0.944414306442677   0.722191176107785   0.875000000000000   1.0000000
B2   B   0.777747624462180   0.222249901702567   0.875000000000000   1.0000000
B2   B   0.110325629770433   0.721829481551881   0.375000000000000   1.0000000
B2   B   0.445201506785130   0.724803968371074   0.375000000000000   1.0000000
B2   B   0.284300404334125   0.225085511828070   0.375000000000000   1.0000000
B2   B   0.776337372873569   0.720954116358222   0.375000000000000   1.0000000
B2   B   0.612297890660148   0.219945218234731   0.375000000000000   1.0000000
B2   B   0.947568066868254   0.223710907717996   0.375000000000000   1.0000000
B2   B   0.111144804123057   0.388907927583438   0.875000000000000   1.0000000
B2   B   0.277777866638166   0.888897109236170   0.875000000000000   1.0000000
B2   B   0.611083483010812   0.888850142884290   0.875000000000000   1.0000000
B2   B   0.444518287389679   0.388925810361503   0.875000000000000   1.0000000
B2   B   0.944431618876534   0.888855445661191   0.875000000000000   1.0000000
B2   B   0.110953928203826   0.888307228274126   0.375000000000000   1.0000000
B2   B   0.777724400625980   0.388920620788055   0.875000000000000   1.0000000
B2   B   0.445204859891915   0.889269096612622   0.375000000000000   1.0000000
B2   B   0.284300404334125   0.392548225839384   0.375000000000000   1.0000000
B2   B   0.278400262736708   0.557192076002597   0.375000000000000   1.0000000
B2   B   0.606532496560432   0.383810972970712   0.375000000000000   1.0000000
B2   B   0.779736129876604   0.890211939605275   0.375000000000000   1.0000000
B2   B   0.945164044297031   0.389532585563354   0.375000000000000   1.0000000
B2   B   0.111113062505622   0.555560599624262   0.875000000000000   1.0000000
B2   B   0.277804473385774   0.055586872111994   0.875000000000000   1.0000000
B2   B   0.777719016234234   0.555526174783785   0.875000000000000   1.0000000
B2   B   0.611083483010812   0.055566673459849   0.875000000000000   1.0000000
B2   B   0.944454462244000   0.055548558560691   0.875000000000000   1.0000000
B2   B   0.055593352901704   0.111148533627101   0.125102240020543   1.0000000
B2   B   0.555659706883585   0.610945985467323   0.124839336465435   1.0000000
B2   B   0.389019846824582   0.111355803706794   0.125138312224764   1.0000000
B2   B   0.888653756900757   0.610993545117049   0.125091767385195   1.0000000
B2   B   0.722243372832092   0.111140579723713   0.125036420666061   1.0000000
B2   B   0.055479967032037   0.777755124642607   0.624948270698597   1.0000000
B2   B   0.388957992362444   0.777751745497603   0.624935907413757   1.0000000
B2   B   0.222309502314148   0.277821417823742   0.624985300168553   1.0000000
B2   B   0.722179518293412   0.777701954470675   0.625025851344301   1.0000000
B2   B   0.555659706883585   0.278047054749599   0.625160663534564   1.0000000
B2   B   0.888875829103913   0.277773395483387   0.624938573220069   1.0000000
B2   B   0.222234593883610   0.777783963608473   0.125032522204676   1.0000000
B2   B   0.055593352901704   0.277778152607938   0.125102240020543   1.0000000
B2   B   0.388991502679015   0.277986370850588   0.124852534748944   1.0000000
B2   B   0.555615921188071   0.777712198604917   0.125044689085716   1.0000000
B2   B   0.888769398177032   0.777709783350213   0.125049872699853   1.0000000
B2   B   0.722179518293412   0.277810897156072   0.124974148655700   1.0000000
B2   B   0.055548216393598   0.944471511913796   0.624903179586937   1.0000000
B2   B   0.388957992362444   0.944539580198177   0.624935907413757   1.0000000
B2   B   0.222299407643782   0.444394242177863   0.624904262826557   1.0000000
B2   B   0.555519822612456   0.444426577972892   0.622328364743899   1.0000000
B2   B   0.722243372832092   0.944436126441715   0.624963579333940   1.0000000
B2   B   0.888769398177032   0.444392948160155   0.624950127300146   1.0000000
B2   B   0.055548216393598   0.444410037813129   0.125096820413064   1.0000000
B2   B   0.222270808636536   0.944546484903815   0.125077053109925   1.0000000
B2   B   0.555607451724482   0.944470392528906   0.125055477572549   1.0000000
B2   B   0.388991502679015   0.444338465161764   0.124852534748944   1.0000000
B2   B   0.888875829103913   0.944435766953861   0.125061426779930   1.0000000
B2   B   0.721935939788420   0.444330104074881   0.124775141456023   1.0000000
B2   B   0.222270808636536   0.611057657066058   0.624922946890076   1.0000000
B2   B   0.055593352901704   0.111148533627101   0.624897759979457   1.0000000
B2   B   0.555659706883585   0.610945985467323   0.625160663534564   1.0000000
B2   B   0.389019846824582   0.111355803706794   0.624861687775236   1.0000000
B2   B   0.888653756900757   0.610993545117049   0.624908232614805   1.0000000
B2   B   0.055479967032037   0.611058175722766   0.125051729301402   1.0000000
B2   B   0.722243372832092   0.111140579723713   0.624963579333940   1.0000000
B2   B   0.222299407643782   0.111238498799254   0.125095737173444   1.0000000
B2   B   0.389019846824582   0.610997376451131   0.125138312224764   1.0000000
B2   B   0.721935939788420   0.610939169046875   0.124775141456023   1.0000000
B2   B   0.555615921188071   0.111237055916491   0.125044689085716   1.0000000
B2   B   0.389019846824582   0.610997376451131   0.624861687775236   1.0000000
B2   B   0.888908442162406   0.111120887747875   0.125028668393917   1.0000000
B2   B   0.222234593883610   0.777783963608473   0.624967477795324   1.0000000
B2   B   0.055593352901704   0.277778152607938   0.624897759979457   1.0000000
B2   B   0.388991502679015   0.277986370850588   0.625147465251056   1.0000000
B2   B   0.555615921188071   0.777712198604917   0.624955310914284   1.0000000
B2   B   0.888769398177032   0.777709783350213   0.624950127300146   1.0000000
B2   B   0.722179518293412   0.277810897156072   0.625025851344301   1.0000000
B2   B   0.055479967032037   0.777755124642607   0.125051729301402   1.0000000
B2   B   0.388957992362444   0.777751745497603   0.125064092586242   1.0000000
B2   B   0.222309502314148   0.277821417823742   0.125014699831447   1.0000000
B2   B   0.722179518293412   0.777701954470675   0.124974148655700   1.0000000
B2   B   0.555659706883585   0.278047054749599   0.124839336465435   1.0000000
B2   B   0.888875829103913   0.277773395483387   0.125061426779930   1.0000000
B2   B   0.055548216393598   0.444410037813129   0.624903179586937   1.0000000
B2   B   0.222270808636536   0.944546484903815   0.624922946890076   1.0000000
B2   B   0.555607451724482   0.944470392528906   0.624944522427451   1.0000000
B2   B   0.388991502679015   0.444338465161764   0.625147465251056   1.0000000
B2   B   0.888875829103913   0.944435766953861   0.624938573220069   1.0000000
B2   B   0.055548216393598   0.944471511913796   0.125096820413064   1.0000000
B2   B   0.721935939788420   0.444330104074881   0.625224858543978   1.0000000
B2   B   0.388957992362444   0.944539580198177   0.125064092586242   1.0000000
B2   B   0.222299407643782   0.444394242177863   0.125095737173444   1.0000000
B2   B   0.222270808636536   0.611057657066058   0.125077053109925   1.0000000
B2   B   0.555519822612456   0.444426577972892   0.127671635256102   1.0000000
B2   B   0.722243372832092   0.944436126441715   0.125036420666061   1.0000000
B2   B   0.888769398177032   0.444392948160155   0.125049872699853   1.0000000
B2   B   0.055479967032037   0.611058175722766   0.624948270698597   1.0000000
B2   B   0.222299407643782   0.111238498799254   0.624904262826557   1.0000000
B2   B   0.721935939788420   0.610939169046875   0.625224858543978   1.0000000
B2   B   0.555615921188071   0.111237055916491   0.624955310914284   1.0000000
B2   B   0.888908442162406   0.111120887747875   0.624971331606083   1.0000000


