data_1
_audit_creation_method   'vasp2cif'
_cell_length_a    14.93631414619966
_cell_length_b    14.936314146199727
_cell_length_c    13.341276283792837
_cell_angle_alpha    90.0
_cell_angle_beta    90.0
_cell_angle_gamma    119.99999999999984

_symmetry_space_group_name_H-M    'P 1'
loop_
_atom_site_label
_atom_site_type_symbol
_atom_site_fract_x
_atom_site_fract_y
_atom_site_fract_z
_atom_site_occupancy
Se2   Se   0.493470332885793   0.413401833109560   0.375000000000000   1.0000000
N2   N   0.111085956303926   0.055522626525799   0.125219718458754   1.0000000
N2   N   0.611037676561657   0.555510159611669   0.124948143956705   1.0000000
N2   N   0.444430476355812   0.055532867561841   0.125206707616813   1.0000000
N2   N   0.944418691174692   0.555552624141589   0.125197998377813   1.0000000
N2   N   0.777771524792510   0.055552429062923   0.125087197819387   1.0000000
N2   N   0.111096119392656   0.722214726362993   0.624888203463719   1.0000000
N2   N   0.444430476355812   0.722230942127306   0.624793292383186   1.0000000
N2   N   0.277721459097457   0.222185941715031   0.625064510824390   1.0000000
N2   N   0.777730362395644   0.722178766908588   0.624666970777532   1.0000000
N2   N   0.611077429935140   0.222202565499698   0.624752087453622   1.0000000
N2   N   0.944430197872309   0.222226271907152   0.624871095534941   1.0000000
N2   N   0.277767592958374   0.722226342029771   0.125130122001570   1.0000000
N2   N   0.111077891836809   0.222205612585069   0.125187494207488   1.0000000
N2   N   0.444415369843218   0.222192108585849   0.124936796937562   1.0000000
N2   N   0.611077429935140   0.722208197768771   0.125247912546379   1.0000000
N2   N   0.944418691174693   0.722199400366439   0.125197998377813   1.0000000
N2   N   0.777761258998566   0.222224015370028   0.125142771459046   1.0000000
N2   N   0.111093504981360   0.888863575672502   0.624874010859162   1.0000000
N2   N   0.444438193112805   0.888885763223066   0.624877123643656   1.0000000
N2   N   0.277721459097457   0.388868850715755   0.625064510824390   1.0000000
N2   N   0.611037676561657   0.388860850283315   0.625051856043295   1.0000000
N2   N   0.777761258998566   0.888870576961866   0.624857228540953   1.0000000
N2   N   0.944422014223275   0.388900308589415   0.624837682654452   1.0000000
N2   N   0.111085956303925   0.388896663111456   0.125219718458754   1.0000000
N2   N   0.277767592958374   0.888874584261933   0.125130122001570   1.0000000
N2   N   0.611101685041118   0.888889462775049   0.125113970121066   1.0000000
N2   N   0.444297173354618   0.388815253343973   0.123083004717026   1.0000000
N2   N   0.944422014223275   0.888855038967188   0.125162317345547   1.0000000
N2   N   0.777730362395644   0.388884928820386   0.125333029222468   1.0000000
N2   N   0.277756837290222   0.555563130007611   0.624815668903986   1.0000000
N2   N   0.111085956303926   0.055522626525799   0.624780281541246   1.0000000
N2   N   0.611037676561657   0.555510159611669   0.625051856043295   1.0000000
N2   N   0.444430476355812   0.055532867561841   0.624793292383186   1.0000000
N2   N   0.944418691174693   0.555552624141589   0.624802001622187   1.0000000
N2   N   0.111093504981360   0.555563262642187   0.125125989140840   1.0000000
N2   N   0.777771524792510   0.055552429062923   0.624912802180613   1.0000000
N2   N   0.277756837290222   0.055527040615947   0.125184331096013   1.0000000
N2   N   0.444415369843218   0.555556594590704   0.124936796937562   1.0000000
N2   N   0.777727333371152   0.555530333352242   0.125364724130298   1.0000000
N2   N   0.611101685041118   0.055545555599397   0.125113970121066   1.0000000
N2   N   0.444415369843218   0.555556594590704   0.625063203062438   1.0000000
N2   N   0.944430197872309   0.055537259298493   0.125128904465058   1.0000000
N2   N   0.277767592958374   0.722226342029771   0.624869877998429   1.0000000
N2   N   0.111077891836809   0.222205612585069   0.624812505792511   1.0000000
N2   N   0.444415369843218   0.222192108585849   0.625063203062438   1.0000000
N2   N   0.611077429935140   0.722208197768771   0.624752087453622   1.0000000
N2   N   0.944418691174693   0.722199400366439   0.624802001622187   1.0000000
N2   N   0.777761258998566   0.222224015370028   0.624857228540953   1.0000000
N2   N   0.111096119392656   0.722214726362993   0.125111796536281   1.0000000
N2   N   0.444430476355812   0.722230942127306   0.125206707616813   1.0000000
N2   N   0.277721459097457   0.222185941715031   0.124935489175609   1.0000000
N2   N   0.777730362395644   0.722178766908588   0.125333029222468   1.0000000
N2   N   0.611077429935140   0.222202565499698   0.125247912546379   1.0000000
N2   N   0.944430197872309   0.222226271907152   0.125128904465058   1.0000000
N2   N   0.111085956303925   0.388896663111456   0.624780281541246   1.0000000
N2   N   0.277767592958374   0.888874584261933   0.624869877998429   1.0000000
N2   N   0.611101685041118   0.888889462775049   0.624886029878935   1.0000000
N2   N   0.444297173354618   0.388815253343973   0.626916995282975   1.0000000
N2   N   0.944422014223275   0.888855038967188   0.624837682654452   1.0000000
N2   N   0.111093504981360   0.888863575672502   0.125125989140840   1.0000000
N2   N   0.777730362395644   0.388884928820386   0.624666970777532   1.0000000
N2   N   0.444438193112805   0.888885763223066   0.125122876356344   1.0000000
N2   N   0.277721459097457   0.388868850715755   0.124935489175609   1.0000000
N2   N   0.277756837290222   0.555563130007611   0.125184331096013   1.0000000
N2   N   0.611037676561657   0.388860850283315   0.124948143956705   1.0000000
N2   N   0.777761258998566   0.888870576961866   0.125142771459046   1.0000000
N2   N   0.944422014223275   0.388900308589415   0.125162317345547   1.0000000
N2   N   0.111093504981360   0.555563262642187   0.624874010859162   1.0000000
N2   N   0.277756837290222   0.055527040615947   0.624815668903986   1.0000000
N2   N   0.777727333371152   0.555530333352242   0.624635275869702   1.0000000
N2   N   0.611101685041118   0.055545555599397   0.624886029878935   1.0000000
N2   N   0.944430197872309   0.055537259298493   0.624871095534941   1.0000000
N2   N   0.057342895868937   0.112262950631677   0.375000000000000   1.0000000
N2   N   0.553746500557000   0.617908513758344   0.375000000000000   1.0000000
N2   N   0.386815532470594   0.105733510510962   0.375000000000000   1.0000000
N2   N   0.884378403780772   0.608855868557057   0.375000000000000   1.0000000
N2   N   0.722731376186977   0.110633414500277   0.375000000000000   1.0000000
N2   N   0.055560908280803   0.777783095613793   0.875000000000000   1.0000000
N2   N   0.388902523731687   0.777784544740012   0.875000000000000   1.0000000
N2   N   0.222229983271314   0.277781658302325   0.875000000000000   1.0000000
N2   N   0.722232543174223   0.777783197508730   0.875000000000000   1.0000000
N2   N   0.555567784814159   0.277786670042997   0.875000000000000   1.0000000
N2   N   0.888899157262233   0.277781311760814   0.875000000000000   1.0000000
N2   N   0.219344718979883   0.776339026156608   0.375000000000000   1.0000000
N2   N   0.057342895868937   0.278413278570595   0.375000000000000   1.0000000
N2   N   0.392210848440420   0.272759022706673   0.375000000000000   1.0000000
N2   N   0.554680846538215   0.780666374268618   0.375000000000000   1.0000000
N2   N   0.886793248294658   0.777063958239407   0.375000000000000   1.0000000
N2   N   0.722029036967019   0.275841896529077   0.375000000000000   1.0000000
N2   N   0.055561489315577   0.944450256179701   0.875000000000000   1.0000000
N2   N   0.388902523731687   0.944451312325011   0.875000000000000   1.0000000
N2   N   0.222229069422787   0.444446954500294   0.875000000000000   1.0000000
N2   N   0.555572080624161   0.444452706978745   0.875000000000000   1.0000000
N2   N   0.722231831681670   0.944449569265982   0.875000000000000   1.0000000
N2   N   0.888897613793032   0.444445699996271   0.875000000000000   1.0000000
N2   N   0.055108062116008   0.444004847295497   0.375000000000000   1.0000000
N2   N   0.219850681404489   0.942364775785755   0.375000000000000   1.0000000
N2   N   0.554796639106134   0.944064986219731   0.375000000000000   1.0000000
N2   N   0.392210848440421   0.452785159067083   0.375000000000000   1.0000000
N2   N   0.889555207625240   0.945418626027852   0.375000000000000   1.0000000
N2   N   0.717627839059046   0.441712441253228   0.375000000000000   1.0000000
N2   N   0.222229798498766   0.611113332059640   0.875000000000000   1.0000000
N2   N   0.055563109254692   0.111115182395398   0.875000000000000   1.0000000
N2   N   0.555567784814159   0.611114448104499   0.875000000000000   1.0000000
N2   N   0.388900241610133   0.111117942633241   0.875000000000000   1.0000000
N2   N   0.888897588333766   0.611115460833554   0.875000000000000   1.0000000
N2   N   0.052402224454548   0.609695418606442   0.375000000000000   1.0000000
N2   N   0.722231831681670   0.111115595749024   0.875000000000000   1.0000000
N2   N   0.223810358565611   0.111751844604081   0.375000000000000   1.0000000
N2   N   0.386815532470594   0.614415355292973   0.375000000000000   1.0000000
N2   N   0.717627839059046   0.609248731139155   0.375000000000000   1.0000000
N2   N   0.554680846538215   0.107347805602933   0.375000000000000   1.0000000
N2   N   0.388900241610133   0.611115632310235   0.875000000000000   1.0000000
N2   N   0.890225805539040   0.111779569436192   0.375000000000000   1.0000000
N2   N   0.222230382793370   0.777781858063352   0.875000000000000   1.0000000
N2   N   0.055563109254692   0.277781260192629   0.875000000000000   1.0000000
N2   N   0.388898466811605   0.277779797432290   0.875000000000000   1.0000000
N2   N   0.555567034071652   0.777782656133602   0.875000000000000   1.0000000
N2   N   0.888897613793032   0.777785247130097   0.875000000000000   1.0000000
N2   N   0.722232543174223   0.277782678998828   0.875000000000000   1.0000000
N2   N   0.052402224454548   0.776040139181442   0.375000000000000   1.0000000
N2   N   0.386820693046400   0.778092361986615   0.375000000000000   1.0000000
N2   N   0.225658073623565   0.279495703478451   0.375000000000000   1.0000000
N2   N   0.722029036967019   0.779520473771278   0.375000000000000   1.0000000
N2   N   0.553746500557000   0.269171320131991   0.375000000000000   1.0000000
N2   N   0.889555207625240   0.277469914930724   0.375000000000000   1.0000000
N2   N   0.055561489315577   0.444444566469205   0.875000000000000   1.0000000
N2   N   0.222229798498766   0.944449799772462   0.875000000000000   1.0000000
N2   N   0.555566930230505   0.944450131781917   0.875000000000000   1.0000000
N2   N   0.388898466811605   0.444452002712650   0.875000000000000   1.0000000
N2   N   0.888899157262233   0.944451178834753   0.875000000000000   1.0000000
N2   N   0.055108062116008   0.944436548153839   0.375000000000000   1.0000000
N2   N   0.722233249624961   0.444450102519600   0.875000000000000   1.0000000
N2   N   0.386820693046400   0.942061664393121   0.375000000000000   1.0000000
N2   N   0.223810358565611   0.445391847294865   0.375000000000000   1.0000000
N2   N   0.219850681404489   0.610819238952071   0.375000000000000   1.0000000
N2   N   0.722731376186977   0.945431295020036   0.375000000000000   1.0000000
N2   N   0.886793248294658   0.443062623388586   0.375000000000000   1.0000000
N2   N   0.055560908280803   0.611111146000346   0.875000000000000   1.0000000
N2   N   0.222229069422787   0.111115448255829   0.875000000000000   1.0000000
N2   N   0.722233249624961   0.611116480438697   0.875000000000000   1.0000000
N2   N   0.555567034071652   0.111117711271385   0.875000000000000   1.0000000
N2   N   0.888899059134714   0.111116196234028   0.875000000000000   1.0000000
B2   B   0.111976946920739   0.056038375702003   0.375000000000000   1.0000000
B2   B   0.610551464077288   0.568582837900681   0.375000000000000   1.0000000
B2   B   0.443274476411872   0.051756011681186   0.375000000000000   1.0000000
B2   B   0.941544059640981   0.554135276772535   0.375000000000000   1.0000000
B2   B   0.779121297784853   0.056227315559094   0.375000000000000   1.0000000
B2   B   0.111126204741836   0.722229769037583   0.875000000000000   1.0000000
B2   B   0.444447377783545   0.722235580703497   0.875000000000000   1.0000000
B2   B   0.277758712633164   0.222209550044094   0.875000000000000   1.0000000
B2   B   0.777809778972403   0.722259900237498   0.875000000000000   1.0000000
B2   B   0.611125176777893   0.222206537936543   0.875000000000000   1.0000000
B2   B   0.944457428254748   0.222220561647081   0.875000000000000   1.0000000
B2   B   0.275481535336070   0.721763023276699   0.375000000000000   1.0000000
B2   B   0.113443141504348   0.223388237418838   0.375000000000000   1.0000000
B2   B   0.442823365321236   0.214318593020331   0.375000000000000   1.0000000
B2   B   0.611792153737238   0.728750521345929   0.375000000000000   1.0000000
B2   B   0.941544059640981   0.720742116201780   0.375000000000000   1.0000000
B2   B   0.778821108149118   0.221230940524947   0.375000000000000   1.0000000
B2   B   0.111121770970240   0.888899792034980   0.875000000000000   1.0000000
B2   B   0.444454207909312   0.888893770621321   0.875000000000000   1.0000000
B2   B   0.277758712633164   0.388882495922399   0.875000000000000   1.0000000
B2   B   0.611122007183230   0.388887057267468   0.875000000000000   1.0000000
B2   B   0.777802686685197   0.888922401771476   0.875000000000000   1.0000000
B2   B   0.944466244778695   0.388882349932364   0.875000000000000   1.0000000
B2   B   0.111976946920739   0.389271904552065   0.375000000000000   1.0000000
B2   B   0.275481535336070   0.887051845392698   0.375000000000000   1.0000000
B2   B   0.611574583787768   0.890925508952055   0.375000000000000   1.0000000
B2   B   0.944023510953992   0.889143051580621   0.375000000000000   1.0000000
B2   B   0.776442589656176   0.386431979304362   0.375000000000000   1.0000000
B2   B   0.277769426000310   0.555557215399083   0.875000000000000   1.0000000
B2   B   0.111108728646999   0.055558696743346   0.875000000000000   1.0000000
B2   B   0.611122007183230   0.555568283249090   0.875000000000000   1.0000000
B2   B   0.444447377783545   0.055545130413383   0.875000000000000   1.0000000
B2   B   0.944475715648635   0.555561837789647   0.875000000000000   1.0000000
B2   B   0.108919456430593   0.554917733736064   0.375000000000000   1.0000000
B2   B   0.777798509061160   0.055565921197248   0.875000000000000   1.0000000
B2   B   0.276001163979378   0.052885380618863   0.375000000000000   1.0000000
B2   B   0.442823365321236   0.561838105634239   0.375000000000000   1.0000000
B2   B   0.773875264229598   0.553604298781467   0.375000000000000   1.0000000
B2   B   0.611574583787768   0.053982408169041   0.375000000000000   1.0000000
B2   B   0.444432439195320   0.555560793492467   0.875000000000000   1.0000000
B2   B   0.946004036503020   0.056681518856247   0.375000000000000   1.0000000
B2   B   0.277782918433289   0.722227484087069   0.875000000000000   1.0000000
B2   B   0.111103002638502   0.222218167985915   0.875000000000000   1.0000000
B2   B   0.444432439195320   0.222204979036191   0.875000000000000   1.0000000
B2   B   0.611125176777893   0.722251972174678   0.875000000000000   1.0000000
B2   B   0.944475715648635   0.722247211192323   0.875000000000000   1.0000000
B2   B   0.777802686685197   0.222213618247052   0.875000000000000   1.0000000
B2   B   0.108248646901289   0.720790990117308   0.375000000000000   1.0000000
B2   B   0.443274476411872   0.724851798064021   0.375000000000000   1.0000000
B2   B   0.280323613059882   0.223491793773112   0.375000000000000   1.0000000
B2   B   0.776442589656176   0.723343943685144   0.375000000000000   1.0000000
B2   B   0.611792153737238   0.216374965724638   0.375000000000000   1.0000000
B2   B   0.946004036503020   0.222655850980109   0.375000000000000   1.0000000
B2   B   0.111108728646999   0.388883365236982   0.875000000000000   1.0000000
B2   B   0.277782918433289   0.888888767679549   0.875000000000000   1.0000000
B2   B   0.611127026911110   0.888908597469185   0.875000000000000   1.0000000
B2   B   0.444429657951861   0.388881495642594   0.875000000000000   1.0000000
B2   B   0.944466244778695   0.888917228179659   0.875000000000000   1.0000000
B2   B   0.108919456430593   0.887335056027856   0.375000000000000   1.0000000
B2   B   0.777809778972403   0.388883212068233   0.875000000000000   1.0000000
B2   B   0.443348155865096   0.888340744599213   0.375000000000000   1.0000000
B2   B   0.280323613059883   0.390165152620099   0.375000000000000   1.0000000
B2   B   0.276001163979378   0.556449116693849   0.375000000000000   1.0000000
B2   B   0.610551464077288   0.375301959509934   0.375000000000000   1.0000000
B2   B   0.778821108149118   0.890923500957500   0.375000000000000   1.0000000
B2   B   0.944023510953992   0.388213792706701   0.375000000000000   1.0000000
B2   B   0.111121770970240   0.555555312268587   0.875000000000000   1.0000000
B2   B   0.277769426000310   0.055545543934563   0.875000000000000   1.0000000
B2   B   0.777814134421662   0.555573733877499   0.875000000000000   1.0000000
B2   B   0.611127026911110   0.055551762775253   0.875000000000000   1.0000000
B2   B   0.944457428254748   0.055570199941001   0.875000000000000   1.0000000
B2   B   0.055525336791076   0.111082597762083   0.124953520803439   1.0000000
B2   B   0.555461608584983   0.611156563320615   0.124401383283844   1.0000000
B2   B   0.388802703588960   0.110981468135612   0.124823100102277   1.0000000
B2   B   0.888978207450737   0.611155770392039   0.124887269484537   1.0000000
B2   B   0.722219223041146   0.111078363076431   0.124860633690350   1.0000000
B2   B   0.055602448650062   0.777791168240136   0.625101934162214   1.0000000
B2   B   0.388840214755586   0.777795758375042   0.625083978013704   1.0000000
B2   B   0.222123629757416   0.277728481545376   0.625313998945932   1.0000000
B2   B   0.722232257321482   0.777851360594191   0.625168695179537   1.0000000
B2   B   0.555461608584983   0.277638378597704   0.625598616716156   1.0000000
B2   B   0.888909617405254   0.277776859621932   0.625104415960854   1.0000000
B2   B   0.222215044143164   0.777774188738249   0.124908414775159   1.0000000
B2   B   0.055525336791076   0.277776072362329   0.124953520803439   1.0000000
B2   B   0.388735969506292   0.277670632588658   0.123850976324669   1.0000000
B2   B   0.555503570935323   0.777840659195433   0.124854967544649   1.0000000
B2   B   0.888950522907747   0.777819971295493   0.124904346358481   1.0000000
B2   B   0.722232257321482   0.277714230060628   0.124831304820463   1.0000000
B2   B   0.055560712038851   0.944421447117884   0.625058124112207   1.0000000
B2   B   0.388840214755586   0.944377789713879   0.625083978013704   1.0000000
B2   B   0.222146782589217   0.444457118825077   0.625102849325062   1.0000000
B2   B   0.555364721169521   0.444349027251425   0.626285089682099   1.0000000
B2   B   0.722219223041146   0.944474193298050   0.625139366309650   1.0000000
B2   B   0.888950522907747   0.444463884945592   0.625095653641520   1.0000000
B2   B   0.055560712038851   0.444472598254296   0.124941875887793   1.0000000
B2   B   0.222194695692509   0.944385908187769   0.124927436762338   1.0000000
B2   B   0.555520932256273   0.944427132794800   0.124869572259504   1.0000000
B2   B   0.388735969506292   0.444398670250970   0.123850976324669   1.0000000
B2   B   0.888909617405254   0.944466091116656   0.124895584039147   1.0000000
B2   B   0.722234864793283   0.444425901415308   0.124625471015870   1.0000000
B2   B   0.222194695692509   0.611142120838075   0.625072563237661   1.0000000
B2   B   0.055525336791076   0.111082597762083   0.625046479196562   1.0000000
B2   B   0.555461608584983   0.611156563320615   0.625598616716156   1.0000000
B2   B   0.388802703588960   0.110981468135612   0.625176899897724   1.0000000
B2   B   0.888978207450737   0.611155770392039   0.625112730515463   1.0000000
B2   B   0.055602448650062   0.611144613743262   0.124898065837787   1.0000000
B2   B   0.722219223041146   0.111078363076431   0.625139366309650   1.0000000
B2   B   0.222146782589217   0.111022997097475   0.124897150674939   1.0000000
B2   B   0.388802703588960   0.611154568786690   0.124823100102277   1.0000000
B2   B   0.722234864793283   0.611142296711311   0.124625471015870   1.0000000
B2   B   0.555503570935323   0.110996245073224   0.124854967544649   1.0000000
B2   B   0.388802703588960   0.611154568786690   0.625176899897724   1.0000000
B2   B   0.888891581875948   0.111112457604645   0.124897669462389   1.0000000
B2   B   0.222215044143164   0.777774188738249   0.625091585224842   1.0000000
B2   B   0.055525336791076   0.277776072362329   0.625046479196562   1.0000000
B2   B   0.388735969506292   0.277670632588658   0.626149023675331   1.0000000
B2   B   0.555503570935323   0.777840659195433   0.625145032455351   1.0000000
B2   B   0.888950522907747   0.777819971295493   0.625095653641520   1.0000000
B2   B   0.722232257321482   0.277714230060628   0.625168695179537   1.0000000
B2   B   0.055602448650062   0.777791168240136   0.124898065837787   1.0000000
B2   B   0.388840214755586   0.777795758375042   0.124916021986296   1.0000000
B2   B   0.222123629757416   0.277728481545376   0.124686001054067   1.0000000
B2   B   0.722232257321482   0.777851360594191   0.124831304820463   1.0000000
B2   B   0.555461608584983   0.277638378597704   0.124401383283844   1.0000000
B2   B   0.888909617405254   0.277776859621932   0.124895584039147   1.0000000
B2   B   0.055560712038851   0.444472598254296   0.625058124112207   1.0000000
B2   B   0.222194695692509   0.944385908187769   0.625072563237661   1.0000000
B2   B   0.555520932256273   0.944427132794800   0.625130427740497   1.0000000
B2   B   0.388735969506292   0.444398670250970   0.626149023675331   1.0000000
B2   B   0.888909617405254   0.944466091116656   0.625104415960854   1.0000000
B2   B   0.055560712038851   0.944421447117884   0.124941875887793   1.0000000
B2   B   0.722234864793283   0.444425901415308   0.625374528984129   1.0000000
B2   B   0.388840214755586   0.944377789713879   0.124916021986296   1.0000000
B2   B   0.222146782589217   0.444457118825077   0.124897150674939   1.0000000
B2   B   0.222194695692509   0.611142120838075   0.124927436762338   1.0000000
B2   B   0.555364721169521   0.444349027251425   0.123714910317901   1.0000000
B2   B   0.722219223041146   0.944474193298050   0.124860633690350   1.0000000
B2   B   0.888950522907747   0.444463884945592   0.124904346358481   1.0000000
B2   B   0.055602448650062   0.611144613743262   0.625101934162214   1.0000000
B2   B   0.222146782589217   0.111022997097475   0.625102849325062   1.0000000
B2   B   0.722234864793283   0.611142296711311   0.625374528984129   1.0000000
B2   B   0.555503570935323   0.110996245073224   0.625145032455351   1.0000000
B2   B   0.888891581875948   0.111112457604645   0.625102330537610   1.0000000


