data_1
_audit_creation_method   'vasp2cif'
_cell_length_a    14.93631414619966
_cell_length_b    14.936314146199727
_cell_length_c    13.341276283792837
_cell_angle_alpha    90.0
_cell_angle_beta    90.0
_cell_angle_gamma    119.99999999999984

_symmetry_space_group_name_H-M    'P 1'
loop_
_atom_site_label
_atom_site_type_symbol
_atom_site_fract_x
_atom_site_fract_y
_atom_site_fract_z
_atom_site_occupancy
P2   P   0.486478295675884   0.409905814504670   0.375000000000000   1.0000000
N2   N   0.111082931790996   0.055519422038199   0.125152763658073   1.0000000
N2   N   0.611061137571559   0.555537426010017   0.125238995335041   1.0000000
N2   N   0.444409232292389   0.055528645734956   0.125167811779286   1.0000000
N2   N   0.944395455362838   0.555541440963585   0.125179050730261   1.0000000
N2   N   0.777763022345958   0.055548177839640   0.125081935943910   1.0000000
N2   N   0.111067227531264   0.722200280432353   0.624880782894396   1.0000000
N2   N   0.444409232292389   0.722213919891010   0.624832188220721   1.0000000
N2   N   0.277758630548816   0.222198526017126   0.625023520977556   1.0000000
N2   N   0.777728594327819   0.722180745802252   0.624721671324103   1.0000000
N2   N   0.611070314174126   0.222198451852720   0.624825184262708   1.0000000
N2   N   0.944432389736940   0.222226850816702   0.624864572383617   1.0000000
N2   N   0.277739815849303   0.722212107880301   0.125133965923484   1.0000000
N2   N   0.111108753966592   0.222221043649932   0.125143640044643   1.0000000
N2   N   0.444408136349835   0.222196802577206   0.125114064546680   1.0000000
N2   N   0.611070314174126   0.722205195654955   0.125174815737413   1.0000000
N2   N   0.944395455362838   0.722187347733249   0.125179050730261   1.0000000
N2   N   0.777749872922101   0.222221122816922   0.125130991878787   1.0000000
N2   N   0.111069283180119   0.888849296252216   0.624862921030529   1.0000000
N2   N   0.444412418397492   0.888872875865588   0.624865244376738   1.0000000
N2   N   0.277758630548816   0.388893437865182   0.625023520977556   1.0000000
N2   N   0.611061137571559   0.388857044894863   0.624761004665023   1.0000000
N2   N   0.777749872922101   0.888862083438657   0.624869008121171   1.0000000
N2   N   0.944410551054903   0.388892521254953   0.624845960818927   1.0000000
N2   N   0.111082931790996   0.388896843086005   0.125152763658073   1.0000000
N2   N   0.277739815849303   0.888861041302280   0.125133965923484   1.0000000
N2   N   0.611084104255611   0.888878432693821   0.125100723887714   1.0000000
N2   N   0.444393050297602   0.388863191815291   0.125077400511702   1.0000000
N2   N   0.944410551054903   0.888851363133392   0.125154039180952   1.0000000
N2   N   0.777728594327812   0.388881181858959   0.125278328675854   1.0000000
N2   N   0.277743384478320   0.555558854438050   0.624862402184941   1.0000000
N2   N   0.111082931790996   0.055519422038199   0.624847236341870   1.0000000
N2   N   0.611061137571559   0.555537426010017   0.624761004665023   1.0000000
N2   N   0.444409232292396   0.055528645734956   0.624832188220721   1.0000000
N2   N   0.944395455362838   0.555541440963585   0.624820949269874   1.0000000
N2   N   0.111069283180119   0.555553320260975   0.125137078969563   1.0000000
N2   N   0.777763022345958   0.055548177839640   0.624918064056133   1.0000000
N2   N   0.277743384478327   0.055517863373591   0.125137597815081   1.0000000
N2   N   0.444408136349835   0.555544667106057   0.125114064546680   1.0000000
N2   N   0.777715678336564   0.555524505834950   0.125371885809331   1.0000000
N2   N   0.611084104255611   0.055539004894912   0.125100723887714   1.0000000
N2   N   0.444408136349835   0.555544667106057   0.624885935453071   1.0000000
N2   N   0.944432389736940   0.055538872253339   0.125135427616241   1.0000000
N2   N   0.277739815849303   0.722212107880301   0.624866034076474   1.0000000
N2   N   0.111108753966592   0.222221043649932   0.624856359955115   1.0000000
N2   N   0.444408136349835   0.222196802577199   0.624885935453071   1.0000000
N2   N   0.611070314174126   0.722205195654962   0.624825184262708   1.0000000
N2   N   0.944395455362838   0.722187347733249   0.624820949269874   1.0000000
N2   N   0.777749872922101   0.222221122816922   0.624869008121171   1.0000000
N2   N   0.111067227531264   0.722200280432353   0.125119217105540   1.0000000
N2   N   0.444409232292389   0.722213919891010   0.125167811779286   1.0000000
N2   N   0.277758630548816   0.222198526017155   0.124976479022387   1.0000000
N2   N   0.777728594327819   0.722180745802252   0.125278328675854   1.0000000
N2   N   0.611070314174126   0.222198451852720   0.125174815737413   1.0000000
N2   N   0.944432389736940   0.222226850816702   0.125135427616241   1.0000000
N2   N   0.111082931790989   0.388896843086005   0.624847236341870   1.0000000
N2   N   0.277739815849303   0.888861041302280   0.624866034076467   1.0000000
N2   N   0.611084104255611   0.888878432693821   0.624899276111868   1.0000000
N2   N   0.444393050297602   0.388863191815291   0.624922599488057   1.0000000
N2   N   0.944410551054903   0.888851363133392   0.624845960818927   1.0000000
N2   N   0.111069283180119   0.888849296252216   0.125137078969563   1.0000000
N2   N   0.777728594327819   0.388881181858959   0.624721671324103   1.0000000
N2   N   0.444412418397492   0.888872875865581   0.125134755623112   1.0000000
N2   N   0.277758630548816   0.388893437865182   0.124976479022387   1.0000000
N2   N   0.277743384478320   0.555558854438050   0.125137597815081   1.0000000
N2   N   0.611061137571559   0.388857044894863   0.125238995335041   1.0000000
N2   N   0.777749872922109   0.888862083438657   0.125130991878787   1.0000000
N2   N   0.944410551054903   0.388892521254953   0.125154039180952   1.0000000
N2   N   0.111069283180119   0.555553320260975   0.624862921030529   1.0000000
N2   N   0.277743384478327   0.055517863373591   0.624862402184941   1.0000000
N2   N   0.777715678336564   0.555524505834950   0.624628114190669   1.0000000
N2   N   0.611084104255611   0.055539004894912   0.624899276111868   1.0000000
N2   N   0.944432389736940   0.055538872253339   0.624864572383617   1.0000000
N2   N   0.059139166792539   0.113213544217997   0.375000000000000   1.0000000
N2   N   0.555589255000626   0.617834535349268   0.375000000000000   1.0000000
N2   N   0.389061786540131   0.108621144754532   0.375000000000000   1.0000000
N2   N   0.885829050664727   0.609581191998790   0.375000000000000   1.0000000
N2   N   0.724338644669025   0.111586021883494   0.375000000000000   1.0000000
N2   N   0.055509652700860   0.777756578261427   0.875000000000000   1.0000000
N2   N   0.388853063000817   0.777759243588296   0.875000000000000   1.0000000
N2   N   0.222172247586432   0.277752790459958   0.875000000000000   1.0000000
N2   N   0.722179744807463   0.777756538283228   0.875000000000000   1.0000000
N2   N   0.555512333999281   0.277758517941661   0.875000000000000   1.0000000
N2   N   0.888844717634617   0.277755852220166   0.875000000000000   1.0000000
N2   N   0.221453213235801   0.777393273284355   0.375000000000000   1.0000000
N2   N   0.059139166792539   0.279258955907885   0.375000000000000   1.0000000
N2   N   0.397264552705612   0.280559951580081   0.375000000000000   1.0000000
N2   N   0.556398695199905   0.781017453734908   0.375000000000000   1.0000000
N2   N   0.888101248653155   0.777486101174588   0.375000000000000   1.0000000
N2   N   0.723592252487676   0.276995353469519   0.375000000000000   1.0000000
N2   N   0.055507510454050   0.944421871865404   0.875000000000000   1.0000000
N2   N   0.388853063000817   0.944427152746241   0.875000000000000   1.0000000
N2   N   0.222173342812187   0.444418962234691   0.875000000000000   1.0000000
N2   N   0.555510915865398   0.444422124599360   0.875000000000000   1.0000000
N2   N   0.722179216581101   0.944423246289718   0.875000000000000   1.0000000
N2   N   0.888844764179928   0.444421721512588   0.875000000000000   1.0000000
N2   N   0.056977728546630   0.444822396451589   0.375000000000000   1.0000000
N2   N   0.222039610663964   0.943911840507848   0.375000000000000   1.0000000
N2   N   0.556514669081663   0.944924001207567   0.375000000000000   1.0000000
N2   N   0.397264552705555   0.450037934458916   0.375000000000000   1.0000000
N2   N   0.891181969726577   0.946110410896461   0.375000000000000   1.0000000
N2   N   0.717907667665812   0.442312859717590   0.375000000000000   1.0000000
N2   N   0.222178827216422   0.611086818684052   0.875000000000000   1.0000000
N2   N   0.055505613339323   0.111086299916189   0.875000000000000   1.0000000
N2   N   0.555512333999281   0.611087149390793   0.875000000000000   1.0000000
N2   N   0.388848467068711   0.111093100323536   0.875000000000000   1.0000000
N2   N   0.888841454388945   0.611087393861204   0.875000000000000   1.0000000
N2   N   0.054300849112583   0.610590489095875   0.375000000000000   1.0000000
N2   N   0.722179216581101   0.111089303624832   0.875000000000000   1.0000000
N2   N   0.226262234766660   0.113752621451430   0.375000000000000   1.0000000
N2   N   0.389061786540131   0.613773975119197   0.375000000000000   1.0000000
N2   N   0.717907667665798   0.608928141281493   0.375000000000000   1.0000000
N2   N   0.556398695199912   0.108714574798176   0.375000000000000   1.0000000
N2   N   0.388848467068711   0.611088700078710   0.875000000000000   1.0000000
N2   N   0.891852840325635   0.112593086829496   0.375000000000000   1.0000000
N2   N   0.222182366426340   0.777757849879781   0.875000000000000   1.0000000
N2   N   0.055505613339323   0.277752646756392   0.875000000000000   1.0000000
N2   N   0.388845827309638   0.277757857113418   0.875000000000000   1.0000000
N2   N   0.555515702002928   0.777757818648450   0.875000000000000   1.0000000
N2   N   0.888844764179935   0.777756376000811   0.875000000000000   1.0000000
N2   N   0.722179744807463   0.277756539857727   0.875000000000000   1.0000000
N2   N   0.054300849112576   0.777043693349944   0.375000000000000   1.0000000
N2   N   0.388834079156727   0.778609687566534   0.375000000000000   1.0000000
N2   N   0.227766327725938   0.280549830529623   0.375000000000000   1.0000000
N2   N   0.723592252487676   0.779930232351336   0.375000000000000   1.0000000
N2   N   0.555589255000626   0.271088052984664   0.375000000000000   1.0000000
N2   N   0.891181969726577   0.278404892163643   0.375000000000000   1.0000000
N2   N   0.055507510454050   0.444418971921796   0.875000000000000   1.0000000
N2   N   0.222178827216422   0.944425341865735   0.875000000000000   1.0000000
N2   N   0.555516988931913   0.944425161132532   0.875000000000000   1.0000000
N2   N   0.388845827309638   0.444421303529748   0.875000000000000   1.0000000
N2   N   0.888844717634617   0.944422198747530   0.875000000000000   1.0000000
N2   N   0.056977728546630   0.945488665428433   0.375000000000000   1.0000000
N2   N   0.722176488583951   0.444421923034429   0.875000000000000   1.0000000
N2   N   0.388834079156727   0.943557724923478   0.375000000000000   1.0000000
N2   N   0.226262234766660   0.445842946648616   0.375000000000000   1.0000000
N2   N   0.222039610663964   0.611461103489473   0.375000000000000   1.0000000
N2   N   0.724338644669231   0.946085956118852   0.375000000000000   1.0000000
N2   N   0.888101248653155   0.443948480811903   0.375000000000000   1.0000000
N2   N   0.055509652700860   0.611086407772868   0.875000000000000   1.0000000
N2   N   0.222173342812187   0.111087713910896   0.875000000000000   1.0000000
N2   N   0.722176488583951   0.611087898882893   0.875000000000000   1.0000000
N2   N   0.555515702002928   0.111091216687701   0.875000000000000   1.0000000
N2   N   0.888844389250947   0.111088861292113   0.875000000000000   1.0000000
B2   B   0.114007528948441   0.057213129126261   0.375000000000000   1.0000000
B2   B   0.608713190788083   0.563473494343116   0.375000000000000   1.0000000
B2   B   0.445265528940126   0.053671224828601   0.375000000000000   1.0000000
B2   B   0.943036234916588   0.554991834954457   0.375000000000000   1.0000000
B2   B   0.780579105097205   0.056956219215189   0.375000000000000   1.0000000
B2   B   0.111071821011060   0.722202577172325   0.875000000000000   1.0000000
B2   B   0.444407786228030   0.722230057848777   0.875000000000000   1.0000000
B2   B   0.277684162788284   0.222163042164792   0.875000000000000   1.0000000
B2   B   0.777763260157763   0.722239958654538   0.875000000000000   1.0000000
B2   B   0.611089535989930   0.222174612202225   0.875000000000000   1.0000000
B2   B   0.944383609579401   0.222187054936766   0.875000000000000   1.0000000
B2   B   0.277540593595185   0.722578519937723   0.375000000000000   1.0000000
B2   B   0.115136416767898   0.224234875050610   0.375000000000000   1.0000000
B2   B   0.445475722506212   0.217564374162827   0.375000000000000   1.0000000
B2   B   0.613350938661444   0.728441722271250   0.375000000000000   1.0000000
B2   B   0.943036234916588   0.721377733295240   0.375000000000000   1.0000000
B2   B   0.780264392598465   0.222366688702935   0.375000000000000   1.0000000
B2   B   0.111059774230488   0.888861926530707   0.875000000000000   1.0000000
B2   B   0.444412554531730   0.888872943932732   0.875000000000000   1.0000000
B2   B   0.277684162788284   0.388854453956870   0.875000000000000   1.0000000
B2   B   0.611097703030618   0.388855401277718   0.875000000000000   1.0000000
B2   B   0.777746972634334   0.888894388185776   0.875000000000000   1.0000000
B2   B   0.944401584570791   0.388856897178451   0.875000000000000   1.0000000
B2   B   0.114007528948441   0.390127733155460   0.375000000000000   1.0000000
B2   B   0.277540593595192   0.888295406990869   0.375000000000000   1.0000000
B2   B   0.613131648869086   0.891390392010868   0.375000000000000   1.0000000
B2   B   0.945482829292892   0.889577557569958   0.375000000000000   1.0000000
B2   B   0.777033616934142   0.387725284975496   0.375000000000000   1.0000000
B2   B   0.277712901252643   0.555541595079244   0.875000000000000   1.0000000
B2   B   0.111033491332830   0.055512227817008   0.875000000000000   1.0000000
B2   B   0.611097703030618   0.555575635086030   0.875000000000000   1.0000000
B2   B   0.444407786228030   0.055511061712809   0.875000000000000   1.0000000
B2   B   0.944418417124037   0.555536744757787   0.875000000000000   1.0000000
B2   B   0.110841541947750   0.555763521528172   0.375000000000000   1.0000000
B2   B   0.777738149171373   0.055535741252344   0.875000000000000   1.0000000
B2   B   0.278183047799441   0.054582385167351   0.375000000000000   1.0000000
B2   B   0.445475722506155   0.561244681676664   0.375000000000000   1.0000000
B2   B   0.774637596669290   0.553985465001107   0.375000000000000   1.0000000
B2   B   0.613131648869086   0.055074590191382   0.375000000000000   1.0000000
B2   B   0.444395931899160   0.555564876118336   0.875000000000000   1.0000000
B2   B   0.947537012378099   0.057351210128594   0.375000000000000   1.0000000
B2   B   0.277734854000193   0.722208013450546   0.875000000000000   1.0000000
B2   B   0.111018631669130   0.222175982501219   0.875000000000000   1.0000000
B2   B   0.444395931899160   0.222164389114102   0.875000000000000   1.0000000
B2   B   0.611089535989930   0.722248257120892   0.875000000000000   1.0000000
B2   B   0.944418417124030   0.722215005699813   0.875000000000000   1.0000000
B2   B   0.777746972634334   0.222185917781993   0.875000000000000   1.0000000
B2   B   0.110156783969355   0.721745058651430   0.375000000000000   1.0000000
B2   B   0.445265528940126   0.724927637444875   0.375000000000000   1.0000000
B2   B   0.283263945631419   0.225473745339174   0.375000000000000   1.0000000
B2   B   0.777033616934142   0.722641665291819   0.375000000000000   1.0000000
B2   B   0.613350938661451   0.218242549723479   0.375000000000000   1.0000000
B2   B   0.947537012378106   0.223519135583110   0.375000000000000   1.0000000
B2   B   0.111033491332830   0.388854596849250   0.875000000000000   1.0000000
B2   B   0.277734854000193   0.888860173883033   0.875000000000000   1.0000000
B2   B   0.611082826273646   0.888889801392227   0.875000000000000   1.0000000
B2   B   0.444382319698115   0.388857826515850   0.875000000000000   1.0000000
B2   B   0.944401584570791   0.888878020725541   0.875000000000000   1.0000000
B2   B   0.110841541947764   0.888411353752964   0.375000000000000   1.0000000
B2   B   0.777763260157763   0.388856634836604   0.875000000000000   1.0000000
B2   B   0.445179695896420   0.889256514615091   0.375000000000000   1.0000000
B2   B   0.283263945631419   0.391123533625517   0.375000000000000   1.0000000
B2   B   0.278183047799441   0.556933995965625   0.375000000000000   1.0000000
B2   B   0.608713190787855   0.378573029778310   0.375000000000000   1.0000000
B2   B   0.780264392598465   0.891231037228951   0.375000000000000   1.0000000
B2   B   0.945482829292892   0.389238605056206   0.375000000000000   1.0000000
B2   B   0.111059774230488   0.555531181033266   0.875000000000000   1.0000000
B2   B   0.277712901252643   0.055504639506685   0.875000000000000   1.0000000
B2   B   0.777768632957275   0.555550983145241   0.875000000000000   1.0000000
B2   B   0.611082826273646   0.055526358214910   0.875000000000000   1.0000000
B2   B   0.944383609579401   0.055529887975836   0.875000000000000   1.0000000
B2   B   0.055485205544224   0.111044140643416   0.124916143634416   1.0000000
B2   B   0.555547094939178   0.611240525750770   0.124723656386874   1.0000000
B2   B   0.388786314359239   0.110917233667776   0.124788785202804   1.0000000
B2   B   0.888951905822196   0.611142619577883   0.124966240102224   1.0000000
B2   B   0.722206924500441   0.111081641832518   0.124899549674951   1.0000000
B2   B   0.055542532294793   0.777749710000110   0.625052619929543   1.0000000
B2   B   0.388817476975916   0.777796337123956   0.625067129654595   1.0000000
B2   B   0.222091139581059   0.277712236457247   0.625373903887981   1.0000000
B2   B   0.722237718980619   0.777837709081274   0.625098603153489   1.0000000
B2   B   0.555547094939178   0.277639902521851   0.625276343613169   1.0000000
B2   B   0.888877704441444   0.277777299533706   0.625063464995754   1.0000000
B2   B   0.222161324999932   0.777747329166627   0.124937815643598   1.0000000
B2   B   0.055485205544231   0.277774398234108   0.124916143634416   1.0000000
B2   B   0.388736986345617   0.277566036686842   0.124395988394281   1.0000000
B2   B   0.555522304950399   0.777845254060027   0.124887077927762   1.0000000
B2   B   0.888919917209604   0.777795236189567   0.124965042682718   1.0000000
B2   B   0.722237718980619   0.277733343232801   0.124901396846504   1.0000000
B2   B   0.055505606049615   0.944370008826771   0.625046423354243   1.0000000
B2   B   0.388817476975916   0.944354473185416   0.625067129654595   1.0000000
B2   B   0.222095265926329   0.444483734025618   0.625201899005001   1.0000000
B2   B   0.555642602709967   0.444487968021648   0.625404449702460   1.0000000
B2   B   0.722206924500441   0.944458616001358   0.625100450325212   1.0000000
B2   B   0.888919917209604   0.444458014353449   0.625034957317352   1.0000000
B2   B   0.055505606049615   0.444468930556009   0.124953576645743   1.0000000
B2   B   0.222138479535100   0.944322582370900   0.124925406524271   1.0000000
B2   B   0.555516213065549   0.944424773199382   0.124912248118846   1.0000000
B2   B   0.388736986345617   0.444504282992104   0.124395988394281   1.0000000
B2   B   0.888877704441451   0.944433738241010   0.124936535004246   1.0000000
B2   B   0.722319129511472   0.444460674358894   0.124905605452756   1.0000000
B2   B   0.222138479535100   0.611149230497493   0.625074593475658   1.0000000
B2   B   0.055485205544224   0.111044140643416   0.625083856365733   1.0000000
B2   B   0.555547094939178   0.611240525750770   0.625276343613169   1.0000000
B2   B   0.388786314359239   0.110917233667762   0.625211214797181   1.0000000
B2   B   0.888951905822196   0.611142619577883   0.625033759897797   1.0000000
B2   B   0.055542532294793   0.611126155627948   0.124947380070522   1.0000000
B2   B   0.722206924500441   0.111081641832518   0.625100450325212   1.0000000
B2   B   0.222095265926329   0.110944865234147   0.124798100995119   1.0000000
B2   B   0.388786314359239   0.611202414024820   0.124788785202804   1.0000000
B2   B   0.722319129511472   0.611191788486290   0.124905605452756   1.0000000
B2   B   0.555522304950399   0.111010384223431   0.124887077927762   1.0000000
B2   B   0.388786314359239   0.611202414024820   0.625211214797181   1.0000000
B2   B   0.888861618228594   0.111097475780961   0.124922004172163   1.0000000
B2   B   0.222161324999925   0.777747329166627   0.625062184356494   1.0000000
B2   B   0.055485205544224   0.277774398234108   0.625083856365733   1.0000000
B2   B   0.388736986345617   0.277566036686842   0.625604011605840   1.0000000
B2   B   0.555522304950399   0.777845254060027   0.625112922072224   1.0000000
B2   B   0.888919917209604   0.777795236189567   0.625034957317345   1.0000000
B2   B   0.722237718980619   0.277733343232809   0.625098603153489   1.0000000
B2   B   0.055542532294793   0.777749710000110   0.124947380070522   1.0000000
B2   B   0.388817476975916   0.777796337123956   0.124932870345589   1.0000000
B2   B   0.222091139581059   0.277712236457247   0.124626096112097   1.0000000
B2   B   0.722237718980619   0.777837709081274   0.124901396846504   1.0000000
B2   B   0.555547094939171   0.277639902521851   0.124723656386874   1.0000000
B2   B   0.888877704441444   0.277777299533706   0.124936535004246   1.0000000
B2   B   0.055505606049622   0.444468930556009   0.625046423354243   1.0000000
B2   B   0.222138479535100   0.944322582370900   0.625074593475658   1.0000000
B2   B   0.555516213065549   0.944424773199382   0.625087751881055   1.0000000
B2   B   0.388736986345624   0.444504282992104   0.625604011605840   1.0000000
B2   B   0.888877704441444   0.944433738241010   0.625063464995754   1.0000000
B2   B   0.055505606049615   0.944370008826771   0.124953576645743   1.0000000
B2   B   0.722319129511472   0.444460674358894   0.625094394547372   1.0000000
B2   B   0.388817476975916   0.944354473185416   0.124932870345589   1.0000000
B2   B   0.222095265926329   0.444483734025618   0.124798100995112   1.0000000
B2   B   0.222138479535100   0.611149230497493   0.124925406524271   1.0000000
B2   B   0.555642602709967   0.444487968021648   0.124595550297455   1.0000000
B2   B   0.722206924500441   0.944458616001358   0.124899549674951   1.0000000
B2   B   0.888919917209604   0.444458014353449   0.124965042682718   1.0000000
B2   B   0.055542532294793   0.611126155627948   0.625052619929543   1.0000000
B2   B   0.222095265926329   0.110944865234147   0.625201899005001   1.0000000
B2   B   0.722319129511472   0.611191788486290   0.625094394547372   1.0000000
B2   B   0.555522304950399   0.111010384223431   0.625112922072224   1.0000000
B2   B   0.888861618228594   0.111097475780961   0.625077995827936   1.0000000


