data_1
_audit_creation_method   'vasp2cif'
_cell_length_a    14.93631414619966
_cell_length_b    14.936314146199727
_cell_length_c    13.341276283792837
_cell_angle_alpha    90.0
_cell_angle_beta    90.0
_cell_angle_gamma    119.99999999999984

_symmetry_space_group_name_H-M    'P 1'
loop_
_atom_site_label
_atom_site_type_symbol
_atom_site_fract_x
_atom_site_fract_y
_atom_site_fract_z
_atom_site_occupancy
N2   N   0.444444444444443   0.388888888888886   0.375000000000000   1.0000000
N2   N   0.111125077830665   0.055543909400599   0.123131766808034   1.0000000
N2   N   0.611106248650400   0.555536342735229   0.122229116191032   1.0000000
N2   N   0.444418831569968   0.055543909400599   0.123131766808033   1.0000000
N2   N   0.944458929445757   0.555571390813347   0.123843099918975   1.0000000
N2   N   0.777777777777779   0.055555555555557   0.124838558398533   1.0000000
N2   N   0.111111111111114   0.722222222222221   0.625696961975217   1.0000000
N2   N   0.444418831569968   0.722208255502389   0.626868233191681   1.0000000
N2   N   0.277796990598054   0.222227084682828   0.627770883809213   1.0000000
N2   N   0.777789423932893   0.722208255502389   0.626868233191681   1.0000000
N2   N   0.611093905512976   0.222239427820665   0.627045204333861   1.0000000
N2   N   0.944469247867607   0.222245873233458   0.625812344463351   1.0000000
N2   N   0.277761942519741   0.722220871966018   0.123843099918974   1.0000000
N2   N   0.111145522308028   0.222239427820665   0.122954795665869   1.0000000
N2   N   0.444430094084620   0.222227084682828   0.122229116191027   1.0000000
N2   N   0.611093905512976   0.722187811024947   0.122954795665870   1.0000000
N2   N   0.944458929445757   0.722220871966018   0.123843099918974   1.0000000
N2   N   0.777776625365593   0.222245873233458   0.124187655536302   1.0000000
N2   N   0.111112461367317   0.888874403887572   0.626156900081224   1.0000000
N2   N   0.444417903146119   0.888875618239996   0.626052064011518   1.0000000
N2   N   0.277796990598081   0.388903239248708   0.627770883809213   1.0000000
N2   N   0.611106248650400   0.388903239248708   0.627770883809213   1.0000000
N2   N   0.777776625365593   0.888864085465721   0.625812344463351   1.0000000
N2   N   0.944457715093333   0.388915430187210   0.626052064011518   1.0000000
N2   N   0.111125077830664   0.388914501763361   0.123131766808034   1.0000000
N2   N   0.277761942519741   0.888874403887572   0.123843099918974   1.0000000
N2   N   0.611087460100100   0.888864085465715   0.124187655536302   1.0000000
N2   N   0.444444444444443   0.388888888888886   0.122490462613144   1.0000000
N2   N   0.944457715093333   0.888875618239996   0.123947935988394   1.0000000
N2   N   0.777789423932893   0.388914501763361   0.123131766808033   1.0000000
N2   N   0.277767550108535   0.555565783224058   0.627322730533821   1.0000000
N2   N   0.111125077830665   0.055543909400599   0.626868233191681   1.0000000
N2   N   0.611106248650400   0.555536342735229   0.627770883809213   1.0000000
N2   N   0.444418831569968   0.055543909400599   0.626868233191681   1.0000000
N2   N   0.944458929445757   0.555571390813347   0.626156900081224   1.0000000
N2   N   0.111112461367317   0.555571390813347   0.123843099918974   1.0000000
N2   N   0.777777777777779   0.055555555555557   0.625161441601460   1.0000000
N2   N   0.277767550108535   0.055535100217632   0.122677269465893   1.0000000
N2   N   0.444430094084620   0.555536342735229   0.122229116191039   1.0000000
N2   N   0.777798233116266   0.555565783224058   0.122677269465893   1.0000000
N2   N   0.611087460100100   0.055556707967855   0.124187655536302   1.0000000
N2   N   0.444430094084620   0.555536342735229   0.627770883809204   1.0000000
N2   N   0.944469247867613   0.055556707967855   0.124187655536302   1.0000000
N2   N   0.277761942519741   0.722220871966018   0.626156900081224   1.0000000
N2   N   0.111145522308028   0.222239427820665   0.627045204333861   1.0000000
N2   N   0.444430094084620   0.222227084682828   0.627770883809213   1.0000000
N2   N   0.611093905512976   0.722187811024947   0.627045204333861   1.0000000
N2   N   0.944458929445757   0.722220871966018   0.626156900081224   1.0000000
N2   N   0.777776625365593   0.222245873233458   0.625812344463351   1.0000000
N2   N   0.111111111111114   0.722222222222221   0.124303038024831   1.0000000
N2   N   0.444418831569968   0.722208255502389   0.123131766808034   1.0000000
N2   N   0.277796990598054   0.222227084682828   0.122229116191033   1.0000000
N2   N   0.777789423932893   0.722208255502389   0.123131766808033   1.0000000
N2   N   0.611093905512976   0.222239427820665   0.122954795665869   1.0000000
N2   N   0.944469247867613   0.222245873233458   0.124187655536302   1.0000000
N2   N   0.111125077830664   0.388914501763361   0.626868233191681   1.0000000
N2   N   0.277761942519741   0.888874403887572   0.626156900081224   1.0000000
N2   N   0.611087460100100   0.888864085465715   0.625812344463351   1.0000000
N2   N   0.444444444444443   0.388888888888886   0.627509537386451   1.0000000
N2   N   0.944457715093333   0.888875618239996   0.626052064011518   1.0000000
N2   N   0.111112461367317   0.888874403887572   0.123843099918974   1.0000000
N2   N   0.777789423932893   0.388914501763361   0.626868233191681   1.0000000
N2   N   0.444417903146119   0.888875618239996   0.123947935988394   1.0000000
N2   N   0.277796990598054   0.388903239248708   0.122229116191032   1.0000000
N2   N   0.277767550108535   0.555565783224058   0.122677269465893   1.0000000
N2   N   0.611106248650400   0.388903239248708   0.122229116191032   1.0000000
N2   N   0.777776625365593   0.888864085465715   0.124187655536302   1.0000000
N2   N   0.944457715093333   0.388915430187210   0.123947935988394   1.0000000
N2   N   0.111112461367317   0.555571390813347   0.626156900081224   1.0000000
N2   N   0.277767550108535   0.055535100217632   0.627322730533821   1.0000000
N2   N   0.777798233116266   0.555565783224058   0.627322730533821   1.0000000
N2   N   0.611087460100100   0.055556707967855   0.625812344463351   1.0000000
N2   N   0.944469247867613   0.055556707967855   0.625812344463351   1.0000000
N2   N   0.055662887534901   0.111183395278117   0.375000000000000   1.0000000
N2   N   0.555723503548481   0.611447007097480   0.375000000000000   1.0000000
N2   N   0.389447549679024   0.113813278738943   0.375000000000000   1.0000000
N2   N   0.887767160818625   0.610550247075873   0.375000000000000   1.0000000
N2   N   0.722196178304446   0.111137155028906   0.375000000000000   1.0000000
N2   N   0.055553853647218   0.777779479686265   0.875000000000000   1.0000000
N2   N   0.388894812218210   0.777782669024707   0.875000000000000   1.0000000
N2   N   0.222216366162933   0.277774849747935   0.875000000000000   1.0000000
N2   N   0.722225107177446   0.777786054303227   0.875000000000000   1.0000000
N2   N   0.555558483585334   0.277774849747935   0.875000000000000   1.0000000
N2   N   0.888887471246983   0.277774942493583   0.875000000000000   1.0000000
N2   N   0.222455847842562   0.777894590588114   0.375000000000000   1.0000000
N2   N   0.055662887534903   0.277812825590029   0.375000000000000   1.0000000
N2   N   0.393093683908037   0.286187367816143   0.375000000000000   1.0000000
N2   N   0.555520507742824   0.777670445798839   0.375000000000000   1.0000000
N2   N   0.888157350421193   0.777259135213698   0.375000000000000   1.0000000
N2   N   0.722149938055298   0.277812825590029   0.375000000000000   1.0000000
N2   N   0.055550664309155   0.944445476526801   0.875000000000000   1.0000000
N2   N   0.388894812218210   0.944445476526801   0.875000000000000   1.0000000
N2   N   0.222218550997304   0.444439828814608   0.875000000000000   1.0000000
N2   N   0.555553705683563   0.444443519508446   0.875000000000000   1.0000000
N2   N   0.722223735866143   0.944447471732482   0.875000000000000   1.0000000
N2   N   0.888887856806528   0.444438521115118   0.875000000000000   1.0000000
N2   N   0.056074198119799   0.444231548540536   0.375000000000000   1.0000000
N2   N   0.222783086257439   0.945566172514704   0.375000000000000   1.0000000
N2   N   0.555506499091252   0.944419916212289   0.375000000000000   1.0000000
N2   N   0.393093683908037   0.440239649425291   0.375000000000000   1.0000000
N2   N   0.888913417121040   0.944419916212289   0.375000000000000   1.0000000
N2   N   0.719520054594522   0.443885783654305   0.375000000000000   1.0000000
N2   N   0.222223056769347   0.611110276564126   0.875000000000000   1.0000000
N2   N   0.055547279030093   0.111108226156159   0.875000000000000   1.0000000
N2   N   0.555558483585334   0.611116967170801   0.875000000000000   1.0000000
N2   N   0.388893504518720   0.111112055516184   0.875000000000000   1.0000000
N2   N   0.888887219794359   0.611110276564126   0.875000000000000   1.0000000
N2   N   0.055438742745363   0.610877485490887   0.375000000000000   1.0000000
N2   N   0.722223735866143   0.111109597467004   0.875000000000000   1.0000000
N2   N   0.224365729059818   0.113813278738946   0.375000000000000   1.0000000
N2   N   0.389447549679024   0.608967604273335   0.375000000000000   1.0000000
N2   N   0.719520054594506   0.608967604273335   0.375000000000000   1.0000000
N2   N   0.555520507742824   0.111183395278119   0.375000000000000   1.0000000
N2   N   0.388893504518720   0.611114782335791   0.875000000000000   1.0000000
N2   N   0.888940976724591   0.111137155028906   0.375000000000000   1.0000000
N2   N   0.222225626038897   0.777779479686265   0.875000000000000   1.0000000
N2   N   0.055547279030093   0.277772386207244   0.875000000000000   1.0000000
N2   N   0.388889813824883   0.277779627650462   0.875000000000000   1.0000000
N2   N   0.555560947125669   0.777786054303225   0.875000000000000   1.0000000
N2   N   0.888887856806528   0.777782669024707   0.875000000000000   1.0000000
N2   N   0.722225107177446   0.277772386207244   0.875000000000000   1.0000000
N2   N   0.055438742745363   0.777894590588120   0.375000000000000   1.0000000
N2   N   0.389101784792792   0.777259135213698   0.375000000000000   1.0000000
N2   N   0.221886326236012   0.277609829784596   0.375000000000000   1.0000000
N2   N   0.722149938055300   0.777670445798839   0.375000000000000   1.0000000
N2   N   0.555723503548488   0.277609829784596   0.375000000000000   1.0000000
N2   N   0.888913417121040   0.277826834242047   0.375000000000000   1.0000000
N2   N   0.055550664309155   0.444438521115118   0.875000000000000   1.0000000
N2   N   0.222223056769346   0.944446113538970   0.875000000000000   1.0000000
N2   N   0.555558390839532   0.944445862086346   0.875000000000000   1.0000000
N2   N   0.388889813824883   0.444443519508446   0.875000000000000   1.0000000
N2   N   0.888887471246983   0.944445862086346   0.875000000000000   1.0000000
N2   N   0.056074198119799   0.945175982912135   0.375000000000000   1.0000000
N2   N   0.722221277817295   0.444439828814608   0.875000000000000   1.0000000
N2   N   0.389101784792792   0.945175982912135   0.375000000000000   1.0000000
N2   N   0.224365729059826   0.443885783654305   0.375000000000000   1.0000000
N2   N   0.222783086257439   0.610550247075873   0.375000000000000   1.0000000
N2   N   0.547145965517254   0.440239649425291   0.375000000000000   1.0000000
N2   N   0.722196178304446   0.944392356608738   0.375000000000000   1.0000000
N2   N   0.888157350421193   0.444231548540536   0.375000000000000   1.0000000
N2   N   0.055553853647218   0.611107707294479   0.875000000000000   1.0000000
N2   N   0.222218550997304   0.111112055516184   0.875000000000000   1.0000000
N2   N   0.722221277817295   0.611114782335791   0.875000000000000   1.0000000
N2   N   0.555560947125669   0.111108226156164   0.875000000000000   1.0000000
N2   N   0.888885861600847   0.111109597467004   0.875000000000000   1.0000000
B2   B   0.111188098510475   0.055973411781999   0.375000000000000   1.0000000
B2   B   0.610305874050321   0.557497248916205   0.375000000000000   1.0000000
B2   B   0.444785313271518   0.055973411781999   0.375000000000000   1.0000000
B2   B   0.944248219962249   0.555399493180993   0.375000000000000   1.0000000
B2   B   0.777777777777779   0.055555555555557   0.375000000000000   1.0000000
B2   B   0.111111111111114   0.722222222222221   0.875000000000000   1.0000000
B2   B   0.444463030491713   0.722290544253164   0.875000000000000   1.0000000
B2   B   0.277705865941664   0.222159387001555   0.875000000000000   1.0000000
B2   B   0.777827513762269   0.722290544253164   0.875000000000000   1.0000000
B2   B   0.611158984247744   0.222174349085887   0.875000000000000   1.0000000
B2   B   0.944396766006073   0.222190506612331   0.875000000000000   1.0000000
B2   B   0.277933840152237   0.722182060114164   0.375000000000000   1.0000000
B2   B   0.108877045032014   0.221105189182631   0.375000000000000   1.0000000
B2   B   0.447191374866178   0.223027459283483   0.375000000000000   1.0000000
B2   B   0.612228144150246   0.724456288301085   0.375000000000000   1.0000000
B2   B   0.944248219962249   0.722182060114164   0.375000000000000   1.0000000
B2   B   0.778053883945953   0.221989563164474   0.375000000000000   1.0000000
B2   B   0.111090246594953   0.888865917596042   0.875000000000000   1.0000000
B2   B   0.444463932995445   0.888898633164529   0.875000000000000   1.0000000
B2   B   0.277705865941665   0.388879812273507   0.875000000000000   1.0000000
B2   B   0.611173946332026   0.388879812273507   0.875000000000000   1.0000000
B2   B   0.777793740606228   0.888936567327256   0.875000000000000   1.0000000
B2   B   0.944434700168799   0.388869400337883   0.875000000000000   1.0000000
B2   B   0.111188098510475   0.388548020061811   0.375000000000000   1.0000000
B2   B   0.277933840152236   0.889085113371080   0.375000000000000   1.0000000
B2   B   0.611343770169114   0.889397654113970   0.375000000000000   1.0000000
B2   B   0.944390486973222   0.888942846360107   0.375000000000000   1.0000000
B2   B   0.777359921551575   0.388548020061811   0.375000000000000   1.0000000
B2   B   0.277745564215009   0.555587769118075   0.875000000000000   1.0000000
B2   B   0.111042789079882   0.055505819571403   0.875000000000000   1.0000000
B2   B   0.611173946332026   0.555627467391064   0.875000000000000   1.0000000
B2   B   0.444463030491713   0.055505819571402   0.875000000000000   1.0000000
B2   B   0.944467415737287   0.555557662332202   0.875000000000000   1.0000000
B2   B   0.111151273219076   0.555399493180993   0.375000000000000   1.0000000
B2   B   0.777777777777779   0.055555555555557   0.875000000000000   1.0000000
B2   B   0.277977847890927   0.055955695781997   0.375000000000000   1.0000000
B2   B   0.447191374866178   0.557497248916205   0.375000000000000   1.0000000
B2   B   0.777377637551481   0.555355485442441   0.375000000000000   1.0000000
B2   B   0.611343770169114   0.055279449387900   0.375000000000000   1.0000000
B2   B   0.444453521059821   0.555627467391063   0.875000000000000   1.0000000
B2   B   0.943935679219359   0.055279449387900   0.375000000000000   1.0000000
B2   B   0.277775671001029   0.722243086738613   0.875000000000000   1.0000000
B2   B   0.111015364838416   0.222174349085887   0.875000000000000   1.0000000
B2   B   0.444453521059821   0.222159387001555   0.875000000000000   1.0000000
B2   B   0.611158984247744   0.722317968495136   0.875000000000000   1.0000000
B2   B   0.944467415737287   0.722243086738613   0.875000000000000   1.0000000
B2   B   0.777793740606228   0.222190506612331   0.875000000000000   1.0000000
B2   B   0.111111111111114   0.722222222222221   0.375000000000000   1.0000000
B2   B   0.444785313271518   0.722145234823055   0.375000000000000   1.0000000
B2   B   0.275836084417341   0.223027459283483   0.375000000000000   1.0000000
B2   B   0.777359921551575   0.722145234823055   0.375000000000000   1.0000000
B2   B   0.612228144150246   0.221105189182631   0.375000000000000   1.0000000
B2   B   0.943935679219359   0.221989563164474   0.375000000000000   1.0000000
B2   B   0.111042789079880   0.388870302841615   0.875000000000000   1.0000000
B2   B   0.277775671001029   0.888865917596042   0.875000000000000   1.0000000
B2   B   0.611142826721288   0.888936567327256   0.875000000000000   1.0000000
B2   B   0.444444444444443   0.388888888888886   0.875000000000000   1.0000000
B2   B   0.944434700168799   0.888898633164529   0.875000000000000   1.0000000
B2   B   0.111151273219076   0.889085113371080   0.375000000000000   1.0000000
B2   B   0.777827513762269   0.388870302841615   0.875000000000000   1.0000000
B2   B   0.444552359386864   0.888942846360107   0.375000000000000   1.0000000
B2   B   0.275836084417341   0.386141958467150   0.375000000000000   1.0000000
B2   B   0.277977847890927   0.555355485442441   0.375000000000000   1.0000000
B2   B   0.610305874050321   0.386141958467150   0.375000000000000   1.0000000
B2   B   0.778053883945953   0.889397654113970   0.375000000000000   1.0000000
B2   B   0.944390486973222   0.388780973946464   0.375000000000000   1.0000000
B2   B   0.111090246594953   0.555557662332202   0.875000000000000   1.0000000
B2   B   0.277745564215009   0.055491128430106   0.875000000000000   1.0000000
B2   B   0.777842204903317   0.555587769118075   0.875000000000000   1.0000000
B2   B   0.611142826721288   0.055539592727185   0.875000000000000   1.0000000
B2   B   0.944396766006073   0.055539592727186   0.875000000000000   1.0000000
B2   B   0.055429541383593   0.110980582363678   0.122843869118649   1.0000000
B2   B   0.555669659310706   0.611339318621446   0.121343240161741   1.0000000
B2   B   0.388782185768864   0.110818055210178   0.121814492011836   1.0000000
B2   B   0.889093679568392   0.611213506451030   0.122975722120949   1.0000000
B2   B   0.722237033494843   0.111096299838267   0.124064921801518   1.0000000
B2   B   0.055584996187912   0.777748337145441   0.626294997904152   1.0000000
B2   B   0.388810003139924   0.777827830658053   0.626796257142990   1.0000000
B2   B   0.221994014711867   0.277663674022613   0.628656759837813   1.0000000
B2   B   0.722352750969925   0.777903791949771   0.627156130881017   1.0000000
B2   B   0.555669659310706   0.277663674022613   0.628656759837813   1.0000000
B2   B   0.888906279315549   0.277812558631480   0.626265921086795   1.0000000
B2   B   0.222163340957512   0.777748337145441   0.123705002095790   1.0000000
B2   B   0.055429541383593   0.277782292353262   0.122843869118649   1.0000000
B2   B   0.388786051668976   0.277572103338000   0.120673773679831   1.0000000
B2   B   0.555551040980000   0.777903791949771   0.122843869118649   1.0000000
B2   B   0.889017827517907   0.777827830658053   0.123203742856930   1.0000000
B2   B   0.722352750969925   0.277782292353262   0.122843869118649   1.0000000
B2   B   0.055505502675149   0.944315505815421   0.626796257142990   1.0000000
B2   B   0.388810003139924   0.944315505815421   0.626796257142990   1.0000000
B2   B   0.222035869441528   0.444551147564465   0.628185507987855   1.0000000
B2   B   0.555761229995376   0.444547281664352   0.629326226320246   1.0000000
B2   B   0.722237033494843   0.944474066989852   0.625935078198336   1.0000000
B2   B   0.889017827517907   0.444523330193405   0.626796257142990   1.0000000
B2   B   0.055505502675149   0.444523330193405   0.123203742856930   1.0000000
B2   B   0.222119826882269   0.944239653764937   0.122975722120949   1.0000000
B2   B   0.555520774701680   0.944427054017779   0.123734078912987   1.0000000
B2   B   0.388786051668976   0.444547281664352   0.120673773679831   1.0000000
B2   B   0.888906279315549   0.944427054017779   0.123734078912987   1.0000000
B2   B   0.722515278123234   0.444551147564465   0.121814492011836   1.0000000
B2   B   0.222119826882269   0.611213506451030   0.627024277878870   1.0000000
B2   B   0.055429541383593   0.110980582363678   0.627156130881017   1.0000000
B2   B   0.555669659310706   0.611339318621446   0.628656759837928   1.0000000
B2   B   0.388782185768864   0.110818055210178   0.628185507987855   1.0000000
B2   B   0.889093679568392   0.611213506451030   0.627024277878870   1.0000000
B2   B   0.055584996187912   0.611169992375649   0.123705002095790   1.0000000
B2   B   0.722237033494843   0.111096299838267   0.625935078198336   1.0000000
B2   B   0.222035869441528   0.110818055210178   0.121814492011837   1.0000000
B2   B   0.388782185768864   0.611297463892043   0.121814492011836   1.0000000
B2   B   0.722515278123234   0.611297463892043   0.121814492011836   1.0000000
B2   B   0.555551040980000   0.110980582363678   0.122843869118649   1.0000000
B2   B   0.388782185768864   0.611297463892043   0.628185507987855   1.0000000
B2   B   0.888859266343476   0.111096299838266   0.124064921801518   1.0000000
B2   B   0.222163340957512   0.777748337145441   0.626294997904152   1.0000000
B2   B   0.055429541383593   0.277782292353262   0.627156130881017   1.0000000
B2   B   0.388786051668976   0.277572103337991   0.629326226320246   1.0000000
B2   B   0.555551040980000   0.777903791949771   0.627156130881017   1.0000000
B2   B   0.889017827517907   0.777827830658053   0.626796257142990   1.0000000
B2   B   0.722352750969925   0.277782292353262   0.627156130881017   1.0000000
B2   B   0.055584996187913   0.777748337145441   0.123705002095790   1.0000000
B2   B   0.388810003139924   0.777827830658053   0.123203742856930   1.0000000
B2   B   0.221994014711867   0.277663674022613   0.121343240161744   1.0000000
B2   B   0.722352750969925   0.777903791949771   0.122843869118649   1.0000000
B2   B   0.555669659310706   0.277663674022613   0.121343240161744   1.0000000
B2   B   0.888906279315549   0.277812558631478   0.123734078912987   1.0000000
B2   B   0.055505502675149   0.444523330193405   0.626796257142990   1.0000000
B2   B   0.222119826882269   0.944239653764937   0.627024277878870   1.0000000
B2   B   0.555520774701680   0.944427054017779   0.626265921086795   1.0000000
B2   B   0.388786051668976   0.444547281664352   0.629326226320246   1.0000000
B2   B   0.888906279315549   0.944427054017779   0.626265921086795   1.0000000
B2   B   0.055505502675149   0.944315505815421   0.123203742856930   1.0000000
B2   B   0.722515278123234   0.444551147564465   0.628185507987855   1.0000000
B2   B   0.388810003139924   0.944315505815421   0.123203742856930   1.0000000
B2   B   0.222035869441528   0.444551147564465   0.121814492011836   1.0000000
B2   B   0.222119826882269   0.611213506451030   0.122975722120949   1.0000000
B2   B   0.555761229995376   0.444547281664352   0.120673773679831   1.0000000
B2   B   0.722237033494843   0.944474066989852   0.124064921801518   1.0000000
B2   B   0.889017827517907   0.444523330193405   0.123203742856930   1.0000000
B2   B   0.055584996187912   0.611169992375649   0.626294997904152   1.0000000
B2   B   0.222035869441528   0.110818055210178   0.628185507987855   1.0000000
B2   B   0.722515278123234   0.611297463892043   0.628185507987855   1.0000000
B2   B   0.555551040980000   0.110980582363678   0.627156130881017   1.0000000
B2   B   0.888859266343476   0.111096299838267   0.625935078198336   1.0000000


