data_1
_audit_creation_method   'vasp2cif'
_cell_length_a    17.52789999999977
_cell_length_b    17.52789999999977
_cell_length_c    15.0
_cell_angle_alpha    90.0
_cell_angle_beta    90.0
_cell_angle_gamma    119.99999999999916

_symmetry_space_group_name_H-M    'P 1'
loop_
_atom_site_label
_atom_site_type_symbol
_atom_site_fract_x
_atom_site_fract_y
_atom_site_fract_z
_atom_site_occupancy
B2   B   0.905355191072350   0.953278001078373   0.107453789646383   1.0000000
B2   B   0.905292490339989   0.096086661886079   0.108269989439441   1.0000000
B2   B   0.905090839424157   0.238756592087840   0.108176317484711   1.0000000
B2   B   0.904479760855517   0.381226238156557   0.107897550063377   1.0000000
B2   B   0.903392253367107   0.523579548846390   0.108803618803080   1.0000000
B2   B   0.903662757624795   0.666208027647227   0.108748191383104   1.0000000
B2   B   0.904763653487646   0.809853046308671   0.107322394345693   1.0000000
B2   B   0.047489848020803   0.952146095247079   0.106917314252481   1.0000000
B2   B   0.048012265463034   0.095573556850365   0.106826726648063   1.0000000
B2   B   0.048241175180220   0.238592328070995   0.107476017701512   1.0000000
B2   B   0.048146968274531   0.381208165548623   0.107693767636538   1.0000000
B2   B   0.047510929049329   0.523578326856468   0.108261290019467   1.0000000
B2   B   0.047014355267233   0.666071257762743   0.108766968850394   1.0000000
B2   B   0.047048164522849   0.808888472937416   0.108048091160499   1.0000000
B2   B   0.189922800749847   0.951414616891596   0.107212478465425   1.0000000
B2   B   0.190061511308972   0.094360985913653   0.106285230657996   1.0000000
B2   B   0.190963869661409   0.238019371998736   0.108439711998889   1.0000000
B2   B   0.191690198104613   0.381063204115624   0.108975784983331   1.0000000
B2   B   0.191633715659511   0.523554643793113   0.108835111572918   1.0000000
B2   B   0.190501991104031   0.666066526856074   0.108957019807952   1.0000000
B2   B   0.190070377038674   0.808699194627742   0.108612424325975   1.0000000
B2   B   0.332913523767259   0.951397375938115   0.107528975646925   1.0000000
B2   B   0.332579664024912   0.093691525106318   0.108105551430784   1.0000000
B2   B   0.332227919753467   0.235830545335295   0.114196700875314   1.0000000
B2   B   0.334534638322287   0.380092130305183   0.118519528811649   1.0000000
B2   B   0.336171354952206   0.523463238297191   0.111627246056143   1.0000000
B2   B   0.334011997656899   0.666186567751631   0.109106248915571   1.0000000
B2   B   0.333296577105702   0.808888687900517   0.108528501877737   1.0000000
B2   B   0.476107106909914   0.952179461850146   0.107556252820338   1.0000000
B2   B   0.475746757412503   0.094404965828642   0.107028072582822   1.0000000
B2   B   0.474990971244696   0.235902334809005   0.114732208508868   1.0000000
B2   B   0.471040797828423   0.371126518261880   0.150133523387484   1.0000000
B2   B   0.483049721098022   0.527007726585635   0.118224539473931   1.0000000
B2   B   0.477516569298823   0.667679839824723   0.109285911781226   1.0000000
B2   B   0.476554268839284   0.809841485097563   0.107959568074432   1.0000000
B2   B   0.619334800198611   0.953299104954626   0.107934090303119   1.0000000
B2   B   0.618993060521844   0.095629129569766   0.107541443439215   1.0000000
B2   B   0.618460184714388   0.238093848965939   0.109360960133805   1.0000000
B2   B   0.616934197802314   0.380202734619106   0.119507648717370   1.0000000
B2   B   0.615872649020758   0.527448450513949   0.120576670785024   1.0000000
B2   B   0.620949741312782   0.670439479832345   0.108903651513170   1.0000000
B2   B   0.619865168839113   0.811336975674293   0.107133069398492   1.0000000
B2   B   0.762531326819299   0.953661066492389   0.107951702824038   1.0000000
B2   B   0.762210268604279   0.096117683153790   0.108584273063225   1.0000000
B2   B   0.761779794908374   0.238643691578916   0.108081575211498   1.0000000
B2   B   0.760787416831334   0.381121625791843   0.109618799211421   1.0000000
B2   B   0.758807113999941   0.523538482931147   0.111834401299029   1.0000000
B2   B   0.761734276617908   0.667775805631158   0.109020974074117   1.0000000
B2   B   0.762905724415830   0.811334377350954   0.106856100262961   1.0000000
N2   N   0.952458548439104   0.905055319230324   0.107231580789703   1.0000000
N2   N   0.952915903334881   0.048414613296018   0.107655496588708   1.0000000
N2   N   0.952942283080128   0.191275202867980   0.108090279330494   1.0000000
N2   N   0.952661230535388   0.333919860553664   0.107792912550888   1.0000000
N2   N   0.951831269710564   0.476338418882436   0.108096070997946   1.0000000
N2   N   0.951491009572392   0.618713369651460   0.108764239899040   1.0000000
N2   N   0.951753496275665   0.761533439772939   0.107945022397342   1.0000000
N2   N   0.094752603472306   0.904112170158458   0.107377119254674   1.0000000
N2   N   0.095063201977536   0.047331869660187   0.106210421791132   1.0000000
N2   N   0.095779446866786   0.190838720111180   0.106973978543126   1.0000000
N2   N   0.096195264046484   0.333815232217139   0.107459578598533   1.0000000
N2   N   0.095941186065445   0.476327239259306   0.108062587554484   1.0000000
N2   N   0.095071099304509   0.618694566846961   0.108769634871938   1.0000000
N2   N   0.094735382306288   0.761255182516703   0.108700610195583   1.0000000
N2   N   0.237646865501814   0.903866111859580   0.107941268603050   1.0000000
N2   N   0.237473099626672   0.046521788574991   0.106639404829222   1.0000000
N2   N   0.237622118159562   0.189465509654954   0.107466047668443   1.0000000
N2   N   0.239379870918871   0.333417857827776   0.110876792197163   1.0000000
N2   N   0.240235616837387   0.476240842895263   0.109766637753176   1.0000000
N2   N   0.238675673410248   0.618698859387800   0.109006500581701   1.0000000
N2   N   0.237967226218961   0.761254154099971   0.108968496215695   1.0000000
N2   N   0.380802009920470   0.904116524896530   0.107897177713938   1.0000000
N2   N   0.380496416291120   0.046519855764076   0.107053271126510   1.0000000
N2   N   0.379968142570746   0.188537559613291   0.112188381220102   1.0000000
N2   N   0.379390875834898   0.330026501305270   0.127042172080454   1.0000000
N2   N   0.385227256539075   0.475597645027170   0.114922870914803   1.0000000
N2   N   0.382258046003211   0.618795417526994   0.110032434196025   1.0000000
N2   N   0.381239077060403   0.761520985907095   0.108515270795004   1.0000000
N2   N   0.524027689048179   0.905058353849182   0.107847709916976   1.0000000
N2   N   0.523710206502064   0.047373832109912   0.106966133742102   1.0000000
N2   N   0.523257999238379   0.189523461979869   0.108354841277748   1.0000000
N2   N   0.521932165934515   0.330125611954900   0.127634951203602   1.0000000
N2   N   0.526451428531421   0.621627465685221   0.110544011095766   1.0000000
N2   N   0.524603579456790   0.762851119385262   0.107557896437163   1.0000000
N2   N   0.667319444107425   0.906289967768650   0.107652878989432   1.0000000
N2   N   0.666917045435311   0.048448996206668   0.108169292732169   1.0000000
N2   N   0.666478082345062   0.190906041960872   0.107782319533460   1.0000000
N2   N   0.665425667707824   0.333512646828693   0.111830418477140   1.0000000
N2   N   0.661928143889516   0.475775281597716   0.115917356214005   1.0000000
N2   N   0.666808338001148   0.621782315754316   0.110971005080410   1.0000000
N2   N   0.668134963013065   0.764830181346079   0.106650990823136   1.0000000
N2   N   0.810374882117771   0.906283744806934   0.107393236391518   1.0000000
N2   N   0.810079215159157   0.048761615819812   0.108708211855515   1.0000000
N2   N   0.809748783170609   0.191304945460970   0.108425564412391   1.0000000
N2   N   0.809029553799563   0.333859536938863   0.107996647613058   1.0000000
N2   N   0.807479682443067   0.476292050657090   0.109972299160494   1.0000000
N2   N   0.808056697144434   0.618855204215764   0.109832460339376   1.0000000
N2   N   0.809749903479240   0.762908426073471   0.106974284249958   1.0000000
P2   P   0.524343467493709   0.476948523098898   0.221913251471777   1.0000000


