data_1
_audit_creation_method   'vasp2cif'
_cell_length_a    17.52789999999977
_cell_length_b    17.52789999999977
_cell_length_c    15.0
_cell_angle_alpha    90.0
_cell_angle_beta    90.0
_cell_angle_gamma    119.99999999999916

_symmetry_space_group_name_H-M    'P 1'
loop_
_atom_site_label
_atom_site_type_symbol
_atom_site_fract_x
_atom_site_fract_y
_atom_site_fract_z
_atom_site_occupancy
B2   B   0.906264180563582   0.953440665017767   0.111102467593899   1.0000000
B2   B   0.904697292027219   0.095304729168772   0.111083073406900   1.0000000
B2   B   0.904228347071640   0.237789065434026   0.111053850885582   1.0000000
B2   B   0.904766814345198   0.380699766235486   0.111035838834002   1.0000000
B2   B   0.907013828108280   0.524129273796145   0.111298043624841   1.0000000
B2   B   0.908118690756567   0.667832312959722   0.111332738030623   1.0000000
B2   B   0.908298956552869   0.811655572149332   0.111275709326023   1.0000000
B2   B   0.048221690412585   0.951780330783420   0.111086677932402   1.0000000
B2   B   0.046561356178235   0.093737840632404   0.111102467593899   1.0000000
B2   B   0.045821874140284   0.236672155960677   0.111084206825367   1.0000000
B2   B   0.046090751893364   0.380149537813686   0.111132138399931   1.0000000
B2   B   0.047294526082795   0.523691683537354   0.111084312618422   1.0000000
B2   B   0.049042734879483   0.666785113822944   0.111126945847900   1.0000000
B2   B   0.049168060193933   0.809528486304697   0.111117173960314   1.0000000
B2   B   0.190473534891294   0.950833961002063   0.111117173960314   1.0000000
B2   B   0.188346449046668   0.091703064643129   0.111275709326023   1.0000000
B2   B   0.186522839613300   0.233864258212933   0.111477053384528   1.0000000
B2   B   0.186693621932682   0.378527701225775   0.111687229711972   1.0000000
B2   B   0.187304658006355   0.523416299748993   0.111594146855411   1.0000000
B2   B   0.190704536108251   0.666543695570565   0.111229287715847   1.0000000
B2   B   0.191060971850065   0.808941049345951   0.111087401980337   1.0000000
B2   B   0.333216907374061   0.950959286316523   0.111126945847900   1.0000000
B2   B   0.332169708237281   0.091883330439426   0.111332738030623   1.0000000
B2   B   0.327806467210892   0.230153576206416   0.111081747420402   1.0000000
B2   B   0.326325741221601   0.373190384745898   0.110310002600543   1.0000000
B2   B   0.325353066158041   0.521951845104099   0.110822065933904   1.0000000
B2   B   0.333135031405401   0.666866989791600   0.111535034026718   1.0000000
B2   B   0.333458325626443   0.809297485087750   0.111229287715847   1.0000000
B2   B   0.476310337659646   0.952707495113200   0.111084312618422   1.0000000
B2   B   0.475872747400851   0.092988193087722   0.111298043624841   1.0000000
B2   B   0.474948627449815   0.232099812768522   0.110887350938197   1.0000000
B2   B   0.466114373672861   0.361145588474878   0.109551455657496   1.0000000
B2   B   0.478050176092915   0.674648955038953   0.110822065933904   1.0000000
B2   B   0.476585721448004   0.812697363189660   0.111594146855411   1.0000000
B2   B   0.619852483382313   0.953911269302630   0.111132138399931   1.0000000
B2   B   0.619302254960517   0.095235206850799   0.111035838834002   1.0000000
B2   B   0.619303591298352   0.236989148073855   0.111371078267425   1.0000000
B2   B   0.620246839333492   0.379755181862496   0.110070342152743   1.0000000
B2   B   0.638856432721118   0.533887647524137   0.109551455657496   1.0000000
B2   B   0.626811636450097   0.673676279975396   0.110310002600543   1.0000000
B2   B   0.621474319970233   0.813308399263330   0.111687229711972   1.0000000
B2   B   0.763329865235323   0.954180147055725   0.111084206825367   1.0000000
B2   B   0.762212955761984   0.095773674124362   0.111053850885582   1.0000000
B2   B   0.762077810220492   0.237924210975512   0.111045388280808   1.0000000
B2   B   0.763012873122154   0.380698429897655   0.111371078267425   1.0000000
B2   B   0.767902208427486   0.525053393747182   0.110887350938197   1.0000000
B2   B   0.769848444989594   0.672195553986108   0.111081747420402   1.0000000
B2   B   0.766137762983076   0.813479181582700   0.111477053384528   1.0000000
N2   N   0.954035160033069   0.905865804090922   0.111112510957906   1.0000000
N2   N   0.952282937012610   0.047718464905405   0.111075909237548   1.0000000
N2   N   0.951326366634032   0.189946403016574   0.111046982645100   1.0000000
N2   N   0.951417577197261   0.332696573998594   0.111024258653674   1.0000000
N2   N   0.952801493225537   0.475796650721730   0.111027080879181   1.0000000
N2   N   0.954329295468878   0.619254369426923   0.111176247389430   1.0000000
N2   N   0.954660530468446   0.762752963928634   0.111222399392895   1.0000000
N2   N   0.095819990153641   0.904181411764349   0.111046461179203   1.0000000
N2   N   0.094135597827082   0.045966241884942   0.111112510957906   1.0000000
N2   N   0.092467081370533   0.188071123515397   0.111110186052996   1.0000000
N2   N   0.092351892473434   0.331493781089570   0.111197076769083   1.0000000
N2   N   0.093047979235599   0.475325633142995   0.111184370231263   1.0000000
N2   N   0.095674249360860   0.618804981803147   0.111126503209019   1.0000000
N2   N   0.096259026512602   0.761695210087578   0.111065667017229   1.0000000
N2   N   0.238306191830447   0.903742375405395   0.111065667017229   1.0000000
N2   N   0.237248437989376   0.045340871449564   0.111222399392895   1.0000000
N2   N   0.233948658879745   0.185567810759469   0.111396736349629   1.0000000
N2   N   0.231845358454722   0.327938505768762   0.111763413802014   1.0000000
N2   N   0.231558155919411   0.474110934082998   0.111952184591696   1.0000000
N2   N   0.237488313325227   0.618793425364863   0.111386286814888   1.0000000
N2   N   0.238416805986404   0.761584595931604   0.111151993949968   1.0000000
N2   N   0.381196420114849   0.904327152557144   0.111126503209019   1.0000000
N2   N   0.380747032491079   0.045672106449130   0.111176247389430   1.0000000
N2   N   0.379352931445669   0.186246873519199   0.111324212618174   1.0000000
N2   N   0.373411304129117   0.323392772204426   0.110199131364440   1.0000000
N2   N   0.358801355249633   0.463912044489741   0.108579207636213   1.0000000
N2   N   0.380478785202158   0.619522616715840   0.111413683370273   1.0000000
N2   N   0.381207976553151   0.762513088592780   0.111386286814888   1.0000000
N2   N   0.524675768774002   0.906953422682390   0.111184370231263   1.0000000
N2   N   0.524204751195262   0.047199908692478   0.111027080879181   1.0000000
N2   N   0.523973718568932   0.187449629747533   0.111505142518831   1.0000000
N2   N   0.523548921434917   0.326531776048732   0.109605477001005   1.0000000
N2   N   0.536089357427269   0.641200046668377   0.108579207636213   1.0000000
N2   N   0.525890467833993   0.768443245998599   0.111952184591696   1.0000000
N2   N   0.668507620827430   0.907649509444567   0.111197076769083   1.0000000
N2   N   0.667304827918413   0.048583824720752   0.111024258653674   1.0000000
N2   N   0.667046505794074   0.190240094061660   0.111093284381191   1.0000000
N2   N   0.667462525271753   0.332538876645240   0.111314135271250   1.0000000
N2   N   0.673469625868265   0.476452480482082   0.109605477001005   1.0000000
N2   N   0.676608629712570   0.626590097788877   0.110199131364440   1.0000000
N2   N   0.672062896148236   0.768156043463275   0.111763413802014   1.0000000
N2   N   0.811930278402595   0.907534320547459   0.111110186052996   1.0000000
N2   N   0.810054998901431   0.048675035283975   0.111046982645100   1.0000000
N2   N   0.809431759954910   0.190569641963094   0.111002909190578   1.0000000
N2   N   0.809761307856335   0.332954896122913   0.111093284381191   1.0000000
N2   N   0.812551772170469   0.476027683348062   0.111505142518831   1.0000000
N2   N   0.813754528398790   0.620648470472322   0.111324212618174   1.0000000
N2   N   0.814433591158523   0.766052743038256   0.111396736349629   1.0000000
O2   O   0.456482109018099   0.543519912178901   0.110124995323963   1.0000000
Se2   Se   0.519808574643504   0.480192827273479   0.109415585280314   1.0000000


