data_1
_audit_creation_method   'vasp2cif'
_cell_length_a    17.52789999999977
_cell_length_b    17.52789999999977
_cell_length_c    15.0
_cell_angle_alpha    90.0
_cell_angle_beta    90.0
_cell_angle_gamma    119.99999999999916

_symmetry_space_group_name_H-M    'P 1'
loop_
_atom_site_label
_atom_site_type_symbol
_atom_site_fract_x
_atom_site_fract_y
_atom_site_fract_z
_atom_site_occupancy
B2   B   0.907781103038055   0.952913166442075   0.110767647140935   1.0000000
B2   B   0.908531606718537   0.095575272145019   0.110797921819076   1.0000000
B2   B   0.908779102486587   0.237877446334968   0.110736664531339   1.0000000
B2   B   0.908860429991576   0.380383924315961   0.110681791441263   1.0000000
B2   B   0.908028672846542   0.523029347851316   0.110769412754139   1.0000000
B2   B   0.906356152966485   0.665432709900792   0.110855096715428   1.0000000
B2   B   0.903628589005112   0.806941663464976   0.110727903935818   1.0000000
B2   B   0.050096634009728   0.953657357665087   0.110704454535267   1.0000000
B2   B   0.052245703529875   0.097334983823687   0.110790312571283   1.0000000
B2   B   0.052056723113685   0.239152998774808   0.110819954733887   1.0000000
B2   B   0.051212922422062   0.381348568872680   0.110758211739618   1.0000000
B2   B   0.049962412283849   0.524311405793391   0.110716405375581   1.0000000
B2   B   0.049126507438102   0.667385180453251   0.110768101274904   1.0000000
B2   B   0.048762041706769   0.810295365052013   0.110738155367731   1.0000000
B2   B   0.193139356799183   0.954969502209966   0.110684509868808   1.0000000
B2   B   0.196484896883341   0.100228959464698   0.110722300501168   1.0000000
B2   B   0.196968330159254   0.242365083723326   0.110745503260005   1.0000000
B2   B   0.194474748696547   0.382614758356261   0.110730837345118   1.0000000
B2   B   0.191571858049040   0.525117421352841   0.110743433377480   1.0000000
B2   B   0.190834469912480   0.668303527687165   0.110724988868211   1.0000000
B2   B   0.191860864060763   0.811422725381700   0.110727230321473   1.0000000
B2   B   0.335547718190464   0.954770406778185   0.110705874007571   1.0000000
B2   B   0.337516842946674   0.098990837914200   0.110731078510571   1.0000000
B2   B   0.344491541764653   0.248227047827144   0.110754495354079   1.0000000
B2   B   0.341457782618839   0.387503484773791   0.110711605131428   1.0000000
B2   B   0.332919373405683   0.526699051506636   0.110827442965899   1.0000000
B2   B   0.331560557273370   0.669105902048851   0.110822235262190   1.0000000
B2   B   0.334427285691299   0.811827367641586   0.110759305644799   1.0000000
B2   B   0.478125151408947   0.953524800486042   0.110751989492627   1.0000000
B2   B   0.479320735495400   0.095972793282519   0.110752250935964   1.0000000
B2   B   0.481412968904501   0.239362667150662   0.110805367965474   1.0000000
B2   B   0.498680860240142   0.395980486955892   0.110784537589434   1.0000000
B2   B   0.470218479513757   0.667851346437894   0.110760946940220   1.0000000
B2   B   0.477010365816493   0.811183953362511   0.110768812878668   1.0000000
B2   B   0.621131828086945   0.953354358250308   0.110800589879820   1.0000000
B2   B   0.622052713713544   0.094682620276410   0.110727042822558   1.0000000
B2   B   0.623048188471427   0.235748484981681   0.110729411814085   1.0000000
B2   B   0.625079695224738   0.375753042327928   0.110898448992132   1.0000000
B2   B   0.609776802213916   0.500460403312552   0.110735047269510   1.0000000
B2   B   0.619651009197667   0.812153966489176   0.110591136808163   1.0000000
B2   B   0.764547067344041   0.952646509893958   0.110805358299950   1.0000000
B2   B   0.765278331947431   0.094924961860469   0.110748300857477   1.0000000
B2   B   0.765939346175643   0.236921611427675   0.110679266148228   1.0000000
B2   B   0.766836817540321   0.378903896646372   0.110723679258342   1.0000000
B2   B   0.765188201951404   0.520054850998660   0.110890846113234   1.0000000
B2   B   0.759443105991891   0.657382532332941   0.110650436270882   1.0000000
B2   B   0.763962092974676   0.809952099900199   0.110556025524248   1.0000000
P2   P   0.614223604412324   0.658287506606158   0.110404014356148   1.0000000
N2   N   0.953845199553518   0.903900414491377   0.110719279001086   1.0000000
N2   N   0.956471950802880   0.048476105210234   0.110787529678139   1.0000000
N2   N   0.956509138881125   0.190709781823465   0.110774809828383   1.0000000
N2   N   0.956201149391817   0.332961812515894   0.110710536598603   1.0000000
N2   N   0.955432262788881   0.475638071273983   0.110684911733884   1.0000000
N2   N   0.954436190617506   0.618542666901084   0.110807955360686   1.0000000
N2   N   0.953179565395018   0.761148510214980   0.110773472032981   1.0000000
N2   N   0.097466022082884   0.906084907719883   0.110666220661410   1.0000000
N2   N   0.099829668825853   0.049991264255753   0.110710676404798   1.0000000
N2   N   0.100567929174130   0.192645566560051   0.110791230543992   1.0000000
N2   N   0.098868456570218   0.334042515536625   0.110776989848423   1.0000000
N2   N   0.096901148230933   0.476539398025696   0.110729947074994   1.0000000
N2   N   0.096130347617495   0.619751116853019   0.110702282841146   1.0000000
N2   N   0.096492032639548   0.762967717955239   0.110731162044276   1.0000000
N2   N   0.240104049357675   0.906947719970517   0.110688116558895   1.0000000
N2   N   0.242030083917553   0.050688904412950   0.110685666661094   1.0000000
N2   N   0.246482936701136   0.196650384373137   0.110732766440266   1.0000000
N2   N   0.244113574229752   0.337056885813976   0.110681565959066   1.0000000
N2   N   0.238339195255979   0.477296479074257   0.110707979556948   1.0000000
N2   N   0.236899871488834   0.620475725752809   0.110729133050884   1.0000000
N2   N   0.238931843428104   0.763855927643738   0.110718445714974   1.0000000
N2   N   0.382729460340978   0.907053910956800   0.110713991295101   1.0000000
N2   N   0.383966439385694   0.049924412588385   0.110714937131101   1.0000000
N2   N   0.386465485876872   0.194428439557392   0.110752544725833   1.0000000
N2   N   0.396637188225084   0.346222387924385   0.110714136488485   1.0000000
N2   N   0.381110079590967   0.481191622496168   0.110770004986344   1.0000000
N2   N   0.376117079548764   0.621570234995418   0.110923384382472   1.0000000
N2   N   0.381342008630133   0.764680742474215   0.110776154648877   1.0000000
N2   N   0.525745472707738   0.906430496935590   0.110769247078889   1.0000000
N2   N   0.526720304859360   0.048273201894051   0.110727138778527   1.0000000
N2   N   0.527987462625803   0.190278812468991   0.110752715515346   1.0000000
N2   N   0.530918764485082   0.332912836785323   0.110836715637325   1.0000000
N2   N   0.471935181990207   0.523611559833996   0.110829030508639   1.0000000
N2   N   0.506655542981454   0.614459733207839   0.110572423350327   1.0000000
N2   N   0.524186745858048   0.764152732989737   0.110664857132980   1.0000000
N2   N   0.669161392948128   0.906839359057570   0.110795125603701   1.0000000
N2   N   0.669951525969820   0.047965578892374   0.110742413222168   1.0000000
N2   N   0.670792705087332   0.189013930442454   0.110677328453536   1.0000000
N2   N   0.672453846650252   0.329571740671908   0.110751191802522   1.0000000
N2   N   0.671612956114900   0.469098898618718   0.110952985619735   1.0000000
N2   N   0.663900604616427   0.598821268818494   0.110418324484387   1.0000000
N2   N   0.670311965093206   0.768808720752564   0.110283926942667   1.0000000
N2   N   0.812695924128554   0.905407372511868   0.110741037497502   1.0000000
N2   N   0.813123958692328   0.047829548773345   0.110781461298512   1.0000000
N2   N   0.813580743581187   0.189855816511592   0.110690841908379   1.0000000
N2   N   0.814204940990478   0.331805914223595   0.110643515293518   1.0000000
N2   N   0.813809192074536   0.473866131952377   0.110778128410578   1.0000000
N2   N   0.811713189047026   0.615413751656121   0.110851320108991   1.0000000
N2   N   0.806976608226049   0.756652604203712   0.110626185734389   1.0000000


