data_1
_audit_creation_method   'vasp2cif'
_cell_length_a    14.93631414619966
_cell_length_b    14.936314146199727
_cell_length_c    13.341276283792837
_cell_angle_alpha    90.0
_cell_angle_beta    90.0
_cell_angle_gamma    119.99999999999984

_symmetry_space_group_name_H-M    'P 1'
loop_
_atom_site_label
_atom_site_type_symbol
_atom_site_fract_x
_atom_site_fract_y
_atom_site_fract_z
_atom_site_occupancy
Si2   Si   0.474450892432705   0.403892112883073   0.375000000000000   1.0000000
N2   N   0.111481825509663   0.055723986117723   0.125010481061278   1.0000000
N2   N   0.611489466843040   0.555780337822733   0.126713142147819   1.0000000
N2   N   0.444802591609434   0.055717039553784   0.125023499413036   1.0000000
N2   N   0.944800646854331   0.555738798359006   0.125108296674488   1.0000000
N2   N   0.778150373149332   0.055741853241323   0.124879168881501   1.0000000
N2   N   0.111466360926716   0.722399847130100   0.624999813874063   1.0000000
N2   N   0.444802591609434   0.722418885388900   0.624976500587170   1.0000000
N2   N   0.278140192809747   0.222384625538387   0.623621140840326   1.0000000
N2   N   0.778138521795723   0.722396774097941   0.624703430530737   1.0000000
N2   N   0.611462512905695   0.222387649481310   0.624637983130143   1.0000000
N2   N   0.944826858794236   0.222421202233020   0.625111537253860   1.0000000
N2   N   0.278134207084845   0.722409095355629   0.124897587921637   1.0000000
N2   N   0.111502621391123   0.222417977362197   0.125272187662095   1.0000000
N2   N   0.444802905334154   0.222377276217384   0.126517974202418   1.0000000
N2   N   0.611462512905695   0.722408196758055   0.125362016869950   1.0000000
N2   N   0.944800646854331   0.722395181828363   0.125108296674488   1.0000000
N2   N   0.778142661484745   0.222413105906505   0.124926422829007   1.0000000
N2   N   0.111470445536669   0.889055845580246   0.625075249081027   1.0000000
N2   N   0.444800000099922   0.889066666716476   0.625206937741975   1.0000000
N2   N   0.278140192809747   0.389088900604567   0.623621140840326   1.0000000
N2   N   0.611489466843040   0.389042462353607   0.623286857852181   1.0000000
N2   N   0.778142661484745   0.889062888911781   0.625073577171107   1.0000000
N2   N   0.944811865952203   0.389084996114488   0.625106669863068   1.0000000
N2   N   0.111481825509671   0.389091172725283   0.125010481061278   1.0000000
N2   N   0.278134207084845   0.889058445062359   0.124897587921637   1.0000000
N2   N   0.611470841881309   0.889074229310470   0.124852672602829   1.0000000
N2   N   0.444778205964156   0.389055769648749   0.129571052209240   1.0000000
N2   N   0.944811865952203   0.889060203171093   0.124893330137059   1.0000000
N2   N   0.778138521795758   0.389075081030948   0.125296569469078   1.0000000
N2   N   0.278140447169382   0.555756329491348   0.624749856981325   1.0000000
N2   N   0.111481825509671   0.055723986117723   0.624989518938822   1.0000000
N2   N   0.611489466843040   0.555780337822733   0.623286857852159   1.0000000
N2   N   0.444802591609434   0.055717039553784   0.624976500587170   1.0000000
N2   N   0.944800646854331   0.555738798359006   0.624891703325420   1.0000000
N2   N   0.111470445536669   0.555747933289745   0.124924750919038   1.0000000
N2   N   0.778150373149332   0.055741853241323   0.625120831118293   1.0000000
N2   N   0.278140447169382   0.055717451011447   0.125250143018624   1.0000000
N2   N   0.444802905334154   0.555758962449978   0.126517974202418   1.0000000
N2   N   0.778127357140079   0.555730345236533   0.125735801683440   1.0000000
N2   N   0.611470841881309   0.055729945904040   0.124852672602829   1.0000000
N2   N   0.444802905334154   0.555758962449978   0.623482025797461   1.0000000
N2   N   0.944826858794236   0.055738989894687   0.124888462746112   1.0000000
N2   N   0.278134207084845   0.722409095355629   0.625102412078370   1.0000000
N2   N   0.111502621391123   0.222417977362197   0.624727812338083   1.0000000
N2   N   0.444802905334154   0.222377276217384   0.623482025797461   1.0000000
N2   N   0.611462512905695   0.722408196758055   0.624637983130143   1.0000000
N2   N   0.944800646854331   0.722395181828363   0.624891703325420   1.0000000
N2   N   0.778142661484745   0.222413105906505   0.625073577171107   1.0000000
N2   N   0.111466360926716   0.722399847130100   0.125000186126036   1.0000000
N2   N   0.444802591609434   0.722418885388900   0.125023499413036   1.0000000
N2   N   0.278140192809747   0.222384625538387   0.126378859159759   1.0000000
N2   N   0.778138521795758   0.722396774097941   0.125296569469078   1.0000000
N2   N   0.611462512905695   0.222387649481310   0.125362016869943   1.0000000
N2   N   0.944826858794236   0.222421202233020   0.124888462746112   1.0000000
N2   N   0.111481825509671   0.389091172725283   0.624989518938822   1.0000000
N2   N   0.278134207084845   0.889058445062359   0.625102412078370   1.0000000
N2   N   0.611470841881309   0.889074229310470   0.625147327396908   1.0000000
N2   N   0.444778205964156   0.389055769648749   0.620428947790881   1.0000000
N2   N   0.944811865952203   0.889060203171093   0.625106669863068   1.0000000
N2   N   0.111470445536669   0.889055845580246   0.124924750919038   1.0000000
N2   N   0.778138521795758   0.389075081030948   0.624703430530737   1.0000000
N2   N   0.444800000099922   0.889066666716476   0.124793062258231   1.0000000
N2   N   0.278140192809747   0.389088900604567   0.126378859159766   1.0000000
N2   N   0.278140447169382   0.555756329491348   0.125250143018624   1.0000000
N2   N   0.611489466843040   0.389042462353607   0.126713142147805   1.0000000
N2   N   0.778142661484745   0.889062888911781   0.124926422829021   1.0000000
N2   N   0.944811865952203   0.389084996114488   0.124893330137059   1.0000000
N2   N   0.111470445536669   0.555747933289745   0.625075249081027   1.0000000
N2   N   0.278140447169382   0.055717451011447   0.624749856981325   1.0000000
N2   N   0.778127357140079   0.555730345236533   0.624264198316659   1.0000000
N2   N   0.611470841881309   0.055729945904040   0.625147327396908   1.0000000
N2   N   0.944826858794236   0.055738989894687   0.625111537253860   1.0000000
N2   N   0.057178754990981   0.112078769552988   0.375000000000000   1.0000000
N2   N   0.554720586904874   0.614134405232467   0.375000000000000   1.0000000
N2   N   0.388082533707862   0.107406821358277   0.375000000000000   1.0000000
N2   N   0.886760673253709   0.610047003293718   0.375000000000000   1.0000000
N2   N   0.723077422499002   0.111172220326398   0.375000000000000   1.0000000
N2   N   0.055891211212489   0.777948711131394   0.875000000000000   1.0000000
N2   N   0.389234887594459   0.777948967118479   0.875000000000000   1.0000000
N2   N   0.222572263535097   0.277952798434071   0.875000000000000   1.0000000
N2   N   0.722560337499725   0.777945491286994   0.875000000000000   1.0000000
N2   N   0.555893881326538   0.277951244078782   0.875000000000000   1.0000000
N2   N   0.889229625532860   0.277946674447706   0.875000000000000   1.0000000
N2   N   0.220936195025716   0.777134764179473   0.375000000000000   1.0000000
N2   N   0.057178754990981   0.278433318771379   0.375000000000000   1.0000000
N2   N   0.391697108642277   0.274397145042194   0.375000000000000   1.0000000
N2   N   0.555632476909030   0.779463538199718   0.375000000000000   1.0000000
N2   N   0.887877945339475   0.777323784933261   0.375000000000000   1.0000000
N2   N   0.722525999370737   0.277101055484217   0.375000000000000   1.0000000
N2   N   0.055894084228246   0.944618724796455   0.875000000000000   1.0000000
N2   N   0.389234887594459   0.944619253809415   0.875000000000000   1.0000000
N2   N   0.222567719518736   0.444609137801564   0.875000000000000   1.0000000
N2   N   0.555885562004418   0.444609447668877   0.875000000000000   1.0000000
N2   N   0.722564087275628   0.944615193507775   0.875000000000000   1.0000000
N2   N   0.889225570665119   0.444610177027927   0.875000000000000   1.0000000
N2   N   0.055519189272006   0.444438665686752   0.375000000000000   1.0000000
N2   N   0.221163187973235   0.943218883930606   0.375000000000000   1.0000000
N2   N   0.555742891331034   0.944538112332195   0.375000000000000   1.0000000
N2   N   0.391697108642277   0.450633296933339   0.375000000000000   1.0000000
N2   N   0.889723960047051   0.945196778060683   0.375000000000000   1.0000000
N2   N   0.719611216219377   0.443438824455654   0.375000000000000   1.0000000
N2   N   0.222563687389123   0.611275778880330   0.875000000000000   1.0000000
N2   N   0.055896437568248   0.111283806551029   0.875000000000000   1.0000000
N2   N   0.555893881326538   0.611275970581028   0.875000000000000   1.0000000
N2   N   0.389235806676123   0.111291581784988   0.875000000000000   1.0000000
N2   N   0.889222231890218   0.611277782611823   0.875000000000000   1.0000000
N2   N   0.054063523857068   0.610496189229089   0.375000000000000   1.0000000
N2   N   0.722564087275628   0.111282227101601   0.875000000000000   1.0000000
N2   N   0.223274539401658   0.111252711392753   0.375000000000000   1.0000000
N2   N   0.388082533707862   0.614009045683085   0.375000000000000   1.0000000
N2   N   0.719611216219406   0.609505725097243   0.375000000000000   1.0000000
N2   N   0.555632476909030   0.109502272042633   0.375000000000000   1.0000000
N2   N   0.389235806676123   0.611277558224556   0.875000000000000   1.0000000
N2   N   0.890216327021967   0.111774830177609   0.375000000000000   1.0000000
N2   N   0.222562918044123   0.777948125688865   0.875000000000000   1.0000000
N2   N   0.055896437568248   0.277945964350413   0.875000000000000   1.0000000
N2   N   0.389240752865985   0.277960418640321   0.875000000000000   1.0000000
N2   N   0.555898446885556   0.777947204664864   0.875000000000000   1.0000000
N2   N   0.889225570665119   0.777948726970428   0.875000000000000   1.0000000
N2   N   0.722560337499725   0.277948179546181   0.875000000000000   1.0000000
N2   N   0.054063523857068   0.776900667961137   0.375000000000000   1.0000000
N2   N   0.388203716721011   0.778422468399012   0.375000000000000   1.0000000
N2   N   0.225259740335870   0.279296536834531   0.375000000000000   1.0000000
N2   N   0.722525999370737   0.778758277219984   0.375000000000000   1.0000000
N2   N   0.554720586904874   0.273919515005799   0.375000000000000   1.0000000
N2   N   0.889723960047051   0.277860515320015   0.375000000000000   1.0000000
N2   N   0.055894084228246   0.444608692764977   0.875000000000000   1.0000000
N2   N   0.222563687389123   0.944621241841866   0.875000000000000   1.0000000
N2   N   0.555899331768924   0.944616332551300   0.875000000000000   1.0000000
N2   N   0.389240752865992   0.444613667559185   0.875000000000000   1.0000000
N2   N   0.889229625532860   0.944616284418383   0.875000000000000   1.0000000
N2   N   0.055519189272006   0.944413856918711   0.375000000000000   1.0000000
N2   N   0.722553239687217   0.444611474333615   0.875000000000000   1.0000000
N2   N   0.388203716721011   0.943114581655462   0.375000000000000   1.0000000
N2   N   0.223274539401658   0.445355161342213   0.375000000000000   1.0000000
N2   N   0.221163187973228   0.611277637376257   0.375000000000000   1.0000000
N2   N   0.723077422499002   0.945238535506082   0.375000000000000   1.0000000
N2   N   0.887877945339475   0.443887493739421   0.375000000000000   1.0000000
N2   N   0.055891211212489   0.611275833414110   0.875000000000000   1.0000000
N2   N   0.222567719518743   0.111291915050408   0.875000000000000   1.0000000
N2   N   0.722553239687217   0.611275098686787   0.875000000000000   1.0000000
N2   N   0.555898446885556   0.111284575553935   0.875000000000000   1.0000000
N2   N   0.889231301575343   0.111282317454364   0.875000000000000   1.0000000
B2   B   0.111779347803813   0.055743727728343   0.375000000000000   1.0000000
B2   B   0.611799508975648   0.563068852965670   0.375000000000000   1.0000000
B2   B   0.444344662012427   0.053082549685587   0.375000000000000   1.0000000
B2   B   0.943275172289589   0.554952421440924   0.375000000000000   1.0000000
B2   B   0.779152627213873   0.056242980273576   0.375000000000000   1.0000000
B2   B   0.111455290402668   0.722394311868123   0.875000000000000   1.0000000
B2   B   0.444783620127903   0.722413670180073   0.875000000000000   1.0000000
B2   B   0.278079726553334   0.222367969535852   0.875000000000000   1.0000000
B2   B   0.778143023924774   0.722429037639639   0.875000000000000   1.0000000
B2   B   0.611463677637362   0.222365173749086   0.875000000000000   1.0000000
B2   B   0.944780788303531   0.222382530722848   0.875000000000000   1.0000000
B2   B   0.276882906134783   0.722289630090046   0.375000000000000   1.0000000
B2   B   0.113157274932942   0.223245304133107   0.375000000000000   1.0000000
B2   B   0.443269218309232   0.216099054119866   0.375000000000000   1.0000000
B2   B   0.612202779122596   0.726139966840526   0.375000000000000   1.0000000
B2   B   0.943275172289589   0.721656084181830   0.375000000000000   1.0000000
B2   B   0.778932010993934   0.221908154647689   0.375000000000000   1.0000000
B2   B   0.111447332074975   0.889061870984903   0.875000000000000   1.0000000
B2   B   0.444789077680026   0.889061205506553   0.875000000000000   1.0000000
B2   B   0.278079726553334   0.389045090350775   0.875000000000000   1.0000000
B2   B   0.611464886657201   0.389043539150532   0.875000000000000   1.0000000
B2   B   0.778134101189740   0.889089426478132   0.875000000000000   1.0000000
B2   B   0.944793646424578   0.389045790060624   0.875000000000000   1.0000000
B2   B   0.111779347803813   0.389368953408849   0.375000000000000   1.0000000
B2   B   0.276882906134783   0.887926609378080   0.375000000000000   1.0000000
B2   B   0.612024270399546   0.890328792082845   0.375000000000000   1.0000000
B2   B   0.944501567705041   0.889135614146111   0.375000000000000   1.0000000
B2   B   0.777425324204102   0.387721698233586   0.375000000000000   1.0000000
B2   B   0.278096959234070   0.555724509418372   0.875000000000000   1.0000000
B2   B   0.111430129475626   0.055719093001636   0.875000000000000   1.0000000
B2   B   0.611464886657201   0.555754680840147   0.875000000000000   1.0000000
B2   B   0.444783620127903   0.055703283281314   0.875000000000000   1.0000000
B2   B   0.944804892845134   0.555726087248107   0.875000000000000   1.0000000
B2   B   0.110140395977670   0.555413773063825   0.375000000000000   1.0000000
B2   B   0.778130364600687   0.055731848966944   0.875000000000000   1.0000000
B2   B   0.276893788184851   0.053732257022846   0.375000000000000   1.0000000
B2   B   0.443269218309232   0.560503497522858   0.375000000000000   1.0000000
B2   B   0.776570717227500   0.554952025280472   0.375000000000000   1.0000000
B2   B   0.612024270399546   0.055028811650271   0.375000000000000   1.0000000
B2   B   0.444772222830605   0.555746047500725   0.875000000000000   1.0000000
B2   B   0.945899404171095   0.056499848730020   0.375000000000000   1.0000000
B2   B   0.278113537232019   0.722394307954987   0.875000000000000   1.0000000
B2   B   0.111420896742612   0.222377115037977   0.875000000000000   1.0000000
B2   B   0.444772222830605   0.222359508663166   0.875000000000000   1.0000000
B2   B   0.611463677637362   0.722431837221591   0.875000000000000   1.0000000
B2   B   0.944804892845134   0.722412138930520   0.875000000000000   1.0000000
B2   B   0.778134101189740   0.222378008044623   0.875000000000000   1.0000000
B2   B   0.109835847636374   0.721584590484766   0.375000000000000   1.0000000
B2   B   0.444344662012427   0.724595445660105   0.375000000000000   1.0000000
B2   B   0.279441762570676   0.222357212452193   0.375000000000000   1.0000000
B2   B   0.777425324204102   0.723036959303909   0.375000000000000   1.0000000
B2   B   0.612202779122596   0.219396145615241   0.375000000000000   1.0000000
B2   B   0.945899404171095   0.222732888774503   0.375000000000000   1.0000000
B2   B   0.111430129475612   0.389044369807255   0.875000000000000   1.0000000
B2   B   0.278113537232019   0.889052562610488   0.875000000000000   1.0000000
B2   B   0.611464841962913   0.889081274935439   0.875000000000000   1.0000000
B2   B   0.444757329921447   0.389045331627363   0.875000000000000   1.0000000
B2   B   0.944793646424578   0.889081189697190   0.875000000000000   1.0000000
B2   B   0.110140395977670   0.888059956247308   0.375000000000000   1.0000000
B2   B   0.778143023924774   0.389047319618335   0.875000000000000   1.0000000
B2   B   0.444438806291744   0.888886069812288   0.375000000000000   1.0000000
B2   B   0.279441762570676   0.390417883451840   0.375000000000000   1.0000000
B2   B   0.276893788184851   0.556494864495398   0.375000000000000   1.0000000
B2   B   0.611799508975648   0.382063989343441   0.375000000000000   1.0000000
B2   B   0.778932010993934   0.890357189679787   0.375000000000000   1.0000000
B2   B   0.944501567705041   0.388699286892024   0.375000000000000   1.0000000
B2   B   0.111447332074975   0.555718794423351   0.875000000000000   1.0000000
B2   B   0.278096959234070   0.055705783148948   0.875000000000000   1.0000000
B2   B   0.778147222486064   0.555740277909632   0.875000000000000   1.0000000
B2   B   0.611464841962913   0.055716900360774   0.875000000000000   1.0000000
B2   B   0.944780788303531   0.055731590913884   0.875000000000000   1.0000000
B2   B   0.055907416411224   0.111270111457708   0.124841860134246   1.0000000
B2   B   0.555901408176425   0.611430335460325   0.125696518002264   1.0000000
B2   B   0.389163393072883   0.111103294017955   0.125204928020257   1.0000000
B2   B   0.889382930990001   0.611358132161644   0.124955479758618   1.0000000
B2   B   0.722595676641113   0.111266945787125   0.124668006299646   1.0000000
B2   B   0.055971441908711   0.777974774128174   0.625211149550718   1.0000000
B2   B   0.389201727286449   0.777987183151090   0.625347670240645   1.0000000
B2   B   0.222489594115253   0.277911463724326   0.624220467947802   1.0000000
B2   B   0.722633528971985   0.778054500851127   0.625171759676772   1.0000000
B2   B   0.555901408176425   0.277804406049158   0.624303481997792   1.0000000
B2   B   0.889292013980542   0.277966335096438   0.625323998250846   1.0000000
B2   B   0.222572160401969   0.777952746867716   0.124730989639924   1.0000000
B2   B   0.055907416411232   0.277970638286874   0.124841860134246   1.0000000
B2   B   0.389053061162495   0.277663969691167   0.127082031549236   1.0000000
B2   B   0.555891117141969   0.778043677870817   0.124770124134409   1.0000000
B2   B   0.889347864765526   0.778028614520767   0.124786239022009   1.0000000
B2   B   0.722633528971985   0.277912361454208   0.124828240323377   1.0000000
B2   B   0.055932002632328   0.944606561552659   0.625290697567491   1.0000000
B2   B   0.389201727286449   0.944547877468817   0.625347670240645   1.0000000
B2   B   0.222502223485366   0.444670725018632   0.624771715280641   1.0000000
B2   B   0.556082277229531   0.444707805281430   0.622612320151623   1.0000000
B2   B   0.722595676641113   0.944662064187302   0.625331993700304   1.0000000
B2   B   0.889347864765526   0.444652583577803   0.625213760978084   1.0000000
B2   B   0.055932002632328   0.444658774413112   0.124709302432622   1.0000000
B2   B   0.222551972181664   0.944546190088038   0.124774139837607   1.0000000
B2   B   0.555889783236593   0.944611558285043   0.124602983016839   1.0000000
B2   B   0.389053061162495   0.444722424804699   0.127082031549236   1.0000000
B2   B   0.889292013980542   0.944659012217482   0.124676001749091   1.0000000
B2   B   0.722728671369492   0.444650736600035   0.125342588623384   1.0000000
B2   B   0.222551972181664   0.611339115427061   0.625225860162478   1.0000000
B2   B   0.055907416411232   0.111270111457708   0.625158139865733   1.0000000
B2   B   0.555901408176425   0.611430335460325   0.624303481997792   1.0000000
B2   B   0.389163393072883   0.111103294017955   0.624795071979552   1.0000000
B2   B   0.889382930990001   0.611358132161644   0.625044520241304   1.0000000
B2   B   0.055971441908711   0.611330001113738   0.124788850449346   1.0000000
B2   B   0.722595676641113   0.111266945787125   0.625331993700304   1.0000000
B2   B   0.222502223485366   0.111164831800084   0.125228284719267   1.0000000
B2   B   0.389163393072883   0.611393432388107   0.125204928020257   1.0000000
B2   B   0.722728671369492   0.611411268102594   0.125342588623384   1.0000000
B2   B   0.555891117141969   0.111180772604702   0.124770124134402   1.0000000
B2   B   0.389163393072883   0.611393432388107   0.624795071979552   1.0000000
B2   B   0.889271756838269   0.111302545085817   0.124702824105710   1.0000000
B2   B   0.222572160401969   0.777952746867716   0.625269010360026   1.0000000
B2   B   0.055907416411224   0.277970638286874   0.625158139865733   1.0000000
B2   B   0.389053061162495   0.277663969691167   0.622917968450572   1.0000000
B2   B   0.555891117141969   0.778043677870817   0.625229875865583   1.0000000
B2   B   0.889347864765526   0.778028614520767   0.625213760978084   1.0000000
B2   B   0.722633528971985   0.277912361454208   0.625171759676772   1.0000000
B2   B   0.055971441908711   0.777974774128174   0.124788850449346   1.0000000
B2   B   0.389201727286449   0.777987183151090   0.124652329759404   1.0000000
B2   B   0.222489594115253   0.277911463724326   0.125779532052213   1.0000000
B2   B   0.722633528971985   0.778054500851127   0.124828240323377   1.0000000
B2   B   0.555901408176425   0.277804406049158   0.125696518002264   1.0000000
B2   B   0.889292013980542   0.277966335096438   0.124676001749091   1.0000000
B2   B   0.055932002632321   0.444658774413055   0.625290697567491   1.0000000
B2   B   0.222551972181664   0.944546190088038   0.625225860162478   1.0000000
B2   B   0.555889783236593   0.944611558285043   0.625397016983260   1.0000000
B2   B   0.389053061162495   0.444722424804699   0.622917968450572   1.0000000
B2   B   0.889292013980542   0.944659012217504   0.625323998250846   1.0000000
B2   B   0.055932002632321   0.944606561552659   0.124709302432622   1.0000000
B2   B   0.722728671369492   0.444650736600035   0.624657411376758   1.0000000
B2   B   0.389201727286449   0.944547877468817   0.124652329759404   1.0000000
B2   B   0.222502223485366   0.444670725018632   0.125228284719245   1.0000000
B2   B   0.222551972181664   0.611339115427061   0.124774139837607   1.0000000
B2   B   0.556082277229531   0.444707805281430   0.127387679848384   1.0000000
B2   B   0.722595676641113   0.944662064187302   0.124668006299646   1.0000000
B2   B   0.889347864765526   0.444652583577803   0.124786239022009   1.0000000
B2   B   0.055971441908711   0.611330001113738   0.625211149550718   1.0000000
B2   B   0.222502223485366   0.111164831800084   0.624771715280641   1.0000000
B2   B   0.722728671369492   0.611411268102544   0.624657411376758   1.0000000
B2   B   0.555891117141969   0.111180772604702   0.625229875865583   1.0000000
B2   B   0.889271756838269   0.111302545085817   0.625297175894319   1.0000000


