data_1
_audit_creation_method   'vasp2cif'
_cell_length_a    17.52789999999977
_cell_length_b    17.52789999999977
_cell_length_c    15.0
_cell_angle_alpha    90.0
_cell_angle_beta    90.0
_cell_angle_gamma    119.99999999999916

_symmetry_space_group_name_H-M    'P 1'
loop_
_atom_site_label
_atom_site_type_symbol
_atom_site_fract_x
_atom_site_fract_y
_atom_site_fract_z
_atom_site_occupancy
B2   B   0.904503290191865   0.952267818916413   0.110997408566960   1.0000000
B2   B   0.904776119298053   0.095257835555235   0.111029657688214   1.0000000
B2   B   0.904768741837591   0.238078901493461   0.111037203785367   1.0000000
B2   B   0.904492376270183   0.380811127713444   0.110986014799472   1.0000000
B2   B   0.904518731951908   0.523560245527407   0.110981837060952   1.0000000
B2   B   0.904487561415513   0.666521565004488   0.111043265616630   1.0000000
B2   B   0.904534684430887   0.809534096061746   0.111034882976248   1.0000000
B2   B   0.047723560340116   0.952644545409260   0.110991755792176   1.0000000
B2   B   0.047828013320881   0.095516280711602   0.110993910955273   1.0000000
B2   B   0.047879156368023   0.238213364417503   0.110983597971190   1.0000000
B2   B   0.047835937954825   0.380870061223816   0.111004481708752   1.0000000
B2   B   0.047721371509425   0.523649590782018   0.110996959544076   1.0000000
B2   B   0.047631825063268   0.666587517449608   0.111005868406372   1.0000000
B2   B   0.047645196009719   0.809618048698724   0.110981752302388   1.0000000
B2   B   0.190699608690904   0.952766656980203   0.110981966754084   1.0000000
B2   B   0.190930857752828   0.095955271533831   0.111015965337907   1.0000000
B2   B   0.191283882916303   0.238736068686955   0.110984204458999   1.0000000
B2   B   0.191294061792027   0.381107276884847   0.110975336795302   1.0000000
B2   B   0.190920991841636   0.523531732902628   0.111043947167067   1.0000000
B2   B   0.190696249416592   0.666486529676873   0.111054930924291   1.0000000
B2   B   0.190680786711632   0.809626035640304   0.110987332846020   1.0000000
B2   B   0.333691901265623   0.952766222444117   0.111008284517848   1.0000000
B2   B   0.333796592364914   0.096058605157079   0.111043568092150   1.0000000
B2   B   0.334238454207086   0.239390727581120   0.111083458250022   1.0000000
B2   B   0.335681279683431   0.382133902044217   0.111025071259498   1.0000000
B2   B   0.334229510337455   0.523412226100551   0.111064886279486   1.0000000
B2   B   0.333800653846280   0.666298583417605   0.111091295200464   1.0000000
B2   B   0.333692098482690   0.809493496515144   0.111053980768125   1.0000000
B2   B   0.476406875557900   0.952490393124658   0.110997107383841   1.0000000
B2   B   0.476448025738236   0.096121731813690   0.110984752089484   1.0000000
B2   B   0.476412642809234   0.239862882029858   0.111056478116309   1.0000000
B2   B   0.476419379438088   0.665136912584467   0.111065204769522   1.0000000
B2   B   0.476458701923280   0.808906942617344   0.111036064229287   1.0000000
B2   B   0.619117900803469   0.952300655968785   0.111003251178325   1.0000000
B2   B   0.619103073032884   0.095385142849385   0.110984810001582   1.0000000
B2   B   0.618928359267742   0.238344233760313   0.110990094860662   1.0000000
B2   B   0.617313564380191   0.380853380045898   0.111007340558666   1.0000000
B2   B   0.619183691773347   0.523891779993234   0.111132041946910   1.0000000
B2   B   0.617317730279925   0.665055607849054   0.111006349251938   1.0000000
B2   B   0.618950163632758   0.809173921277009   0.110986520873620   1.0000000
B2   B   0.761739795105247   0.952252410505758   0.110986198647301   1.0000000
B2   B   0.761868421519114   0.095220374202936   0.111035401469246   1.0000000
B2   B   0.761724268496249   0.238053239854338   0.111041304636463   1.0000000
B2   B   0.760933295220743   0.380636582163930   0.110996986089635   1.0000000
B2   B   0.761465801850639   0.523476215401306   0.111030893454088   1.0000000
B2   B   0.761474037783562   0.666555515237689   0.111044195907051   1.0000000
B2   B   0.760957759663697   0.808892550026848   0.111006516318456   1.0000000
C2   C   0.476479853201413   0.382454269869723   0.111201805024921   1.0000000
C2   C   0.476471514718464   0.522618969999890   0.111380603698660   1.0000000
C2   C   0.519214571523528   0.473934838147270   0.111364013287881   1.0000000
N2   N   0.952409326488886   0.904896252741819   0.110996678830168   1.0000000
N2   N   0.952350333693906   0.047634426605755   0.110991443995897   1.0000000
N2   N   0.952430964372778   0.190497556060199   0.111010029564293   1.0000000
N2   N   0.952349929858863   0.333286659988465   0.110994599838723   1.0000000
N2   N   0.952405145465636   0.476083247180341   0.110947528321645   1.0000000
N2   N   0.952363234676332   0.618979240892119   0.110999313758209   1.0000000
N2   N   0.952370339030126   0.761947923550170   0.111017763264720   1.0000000
N2   N   0.095238039926064   0.904823194012126   0.110949040072518   1.0000000
N2   N   0.095328664107202   0.047843426739021   0.110987881319437   1.0000000
N2   N   0.095484652804208   0.190748276795460   0.110959188643426   1.0000000
N2   N   0.095487456500830   0.333292363150678   0.110966388450955   1.0000000
N2   N   0.095320171031612   0.476045778554872   0.111002688446795   1.0000000
N2   N   0.095233697403994   0.618977978915347   0.111004970996971   1.0000000
N2   N   0.095277770427626   0.761922035623772   0.110963923167435   1.0000000
N2   N   0.238161332874649   0.904819379825481   0.110967649796240   1.0000000
N2   N   0.238016621286176   0.047644854754078   0.111009168825941   1.0000000
N2   N   0.238192465512830   0.190841778521842   0.110998390400196   1.0000000
N2   N   0.239412868053090   0.333985824967047   0.110949121965085   1.0000000
N2   N   0.238180817308711   0.475909128543691   0.111003476444156   1.0000000
N2   N   0.238013412091317   0.618927404715507   0.111053045978258   1.0000000
N2   N   0.238158838567150   0.761904223392088   0.111018461023649   1.0000000
N2   N   0.381133128284479   0.904848927362486   0.111005949814692   1.0000000
N2   N   0.381129729825115   0.047726617130508   0.110993821636572   1.0000000
N2   N   0.380807851682538   0.190158148244789   0.111055540743023   1.0000000
N2   N   0.382018480835130   0.333020213354509   0.111072961533762   1.0000000
N2   N   0.382007668253592   0.477576290413592   0.111075644037650   1.0000000
N2   N   0.380810802617423   0.619219435501910   0.111076541115719   1.0000000
N2   N   0.381134086475600   0.761969983447776   0.111053561810915   1.0000000
N2   N   0.523932686158680   0.904600677515306   0.111000791108687   1.0000000
N2   N   0.523924153098119   0.047901009383898   0.110947795898675   1.0000000
N2   N   0.523999044596942   0.191358337684812   0.110972881849600   1.0000000
N2   N   0.522308569880062   0.334569617764624   0.111062559463020   1.0000000
N2   N   0.522312982299753   0.616340624726970   0.111078135599738   1.0000000
N2   N   0.524012261220929   0.761228221282675   0.111004635036902   1.0000000
N2   N   0.666713786368147   0.904818370868267   0.110966882871243   1.0000000
N2   N   0.666722760850988   0.047650590093650   0.110991197291125   1.0000000
N2   N   0.666699263041573   0.190466710779321   0.110998175012844   1.0000000
N2   N   0.665881196620450   0.333154814037618   0.110968160356208   1.0000000
N2   N   0.666949282940852   0.476277544300080   0.111004930346414   1.0000000
N2   N   0.666962472045275   0.619270083174535   0.111017779296788   1.0000000
N2   N   0.665902967219157   0.761325221792494   0.110966655714634   1.0000000
N2   N   0.809244660434456   0.904575162452588   0.110966998273679   1.0000000
N2   N   0.809562484962226   0.047658977516306   0.111009054707787   1.0000000
N2   N   0.809556076452251   0.190473560647870   0.111030043012324   1.0000000
N2   N   0.809228598214730   0.333240368653702   0.110999321559219   1.0000000
N2   N   0.809517803488067   0.476021395710901   0.110980484798787   1.0000000
N2   N   0.809517729914860   0.619035775092631   0.111035945668208   1.0000000
N2   N   0.809534334043186   0.762073347977756   0.111012038709928   1.0000000


