data_1
_audit_creation_method   'vasp2cif'
_cell_length_a    17.52789999999977
_cell_length_b    17.52789999999977
_cell_length_c    15.0
_cell_angle_alpha    90.0
_cell_angle_beta    90.0
_cell_angle_gamma    119.99999999999916

_symmetry_space_group_name_H-M    'P 1'
loop_
_atom_site_label
_atom_site_type_symbol
_atom_site_fract_x
_atom_site_fract_y
_atom_site_fract_z
_atom_site_occupancy
B2   B   0.909542690869444   0.954464660346560   0.110637527462990   1.0000000
B2   B   0.909205955724210   0.096187433768812   0.110760566753362   1.0000000
B2   B   0.909047087292424   0.237931382850759   0.110732034586869   1.0000000
B2   B   0.909146023491245   0.380152644628465   0.110682430600724   1.0000000
B2   B   0.908891857284150   0.522842986746521   0.110722707073786   1.0000000
B2   B   0.908458626497115   0.665676748751702   0.110739866703597   1.0000000
B2   B   0.904493411402695   0.807326037141335   0.110703933023489   1.0000000
B2   B   0.050498050837789   0.953787851710967   0.110658786080452   1.0000000
B2   B   0.052893476838558   0.097667531417914   0.110734008272826   1.0000000
B2   B   0.052189617127765   0.239099596266703   0.110834047885045   1.0000000
B2   B   0.050980944470709   0.381245072980874   0.110714045755242   1.0000000
B2   B   0.049699927065638   0.524383410636934   0.110693295180667   1.0000000
B2   B   0.049601218806595   0.667682113459252   0.110721101223801   1.0000000
B2   B   0.049200159634938   0.810622696259303   0.110728411249922   1.0000000
B2   B   0.193103307356248   0.954930435389243   0.110700866744230   1.0000000
B2   B   0.196423690157174   0.099797075003105   0.110695210656351   1.0000000
B2   B   0.196739739662545   0.241656990366566   0.110776622772225   1.0000000
B2   B   0.193637038620928   0.382218943002935   0.110750958800392   1.0000000
B2   B   0.189920479220611   0.525239318182459   0.110684520859975   1.0000000
B2   B   0.189956192058153   0.668814769650423   0.110755719160208   1.0000000
B2   B   0.191665885303979   0.811770840503560   0.110751706705563   1.0000000
B2   B   0.335203077100087   0.954764749580824   0.110743620376109   1.0000000
B2   B   0.337197092030673   0.098343516288681   0.110751826623975   1.0000000
B2   B   0.343967305515508   0.246949340948767   0.110792062423019   1.0000000
B2   B   0.340041723316057   0.385687551516767   0.110783316805941   1.0000000
B2   B   0.329134150149444   0.526798165335943   0.110670811886822   1.0000000
B2   B   0.329103833294558   0.670094284453655   0.110663764652988   1.0000000
B2   B   0.333741439671714   0.812412190101507   0.110814719609651   1.0000000
B2   B   0.477683260529199   0.953672179890052   0.110728127939831   1.0000000
B2   B   0.478998057137565   0.095399695113731   0.110747823004883   1.0000000
B2   B   0.480979524655505   0.237786406107375   0.110774242871576   1.0000000
B2   B   0.498077681108756   0.392433311323358   0.110859865642668   1.0000000
B2   B   0.465875841372328   0.669169990260631   0.110774706062328   1.0000000
B2   B   0.476231711191772   0.811931683186452   0.110770004611077   1.0000000
B2   B   0.621060907569473   0.954931472911644   0.110730415306108   1.0000000
B2   B   0.621923980559686   0.094766080224760   0.110702115437446   1.0000000
B2   B   0.623042860062257   0.234627273602389   0.110701961044062   1.0000000
B2   B   0.625714074922251   0.373469322149276   0.110744145090628   1.0000000
B2   B   0.613390630565838   0.498290634882572   0.110874579213716   1.0000000
B2   B   0.620061916258559   0.815786140365792   0.110798357877782   1.0000000
B2   B   0.765497235234707   0.954289718879658   0.110692030495787   1.0000000
B2   B   0.765588201139680   0.095462558015215   0.110706689659108   1.0000000
B2   B   0.766167597732677   0.236645965367863   0.110680478698232   1.0000000
B2   B   0.767470382945693   0.378060996109679   0.110683479910145   1.0000000
B2   B   0.767084724949419   0.519035324031278   0.110728934190527   1.0000000
B2   B   0.763348327069795   0.657137624120886   0.110818997762853   1.0000000
B2   B   0.767164873785831   0.813334537587591   0.110782207797570   1.0000000
Se2   Se   0.615507388419239   0.658932094491451   0.110919731111883   1.0000000
N2   N   0.954332723394362   0.904178959064295   0.110633460600412   1.0000000
N2   N   0.957553586552554   0.049491993681089   0.110692146819788   1.0000000
N2   N   0.957011342670896   0.191057748404774   0.110797835102741   1.0000000
N2   N   0.956418714844067   0.332867242975554   0.110686436593502   1.0000000
N2   N   0.955672615646954   0.475346301446791   0.110691461659581   1.0000000
N2   N   0.955407154745960   0.618377363358375   0.110714132550656   1.0000000
N2   N   0.953675553929066   0.761272198605611   0.110721162518995   1.0000000
N2   N   0.097663544661222   0.906202308696732   0.110682651451908   1.0000000
N2   N   0.100142184692873   0.050103208450245   0.110654095071747   1.0000000
N2   N   0.101034342611619   0.192887962085238   0.110791417344264   1.0000000
N2   N   0.098863548746568   0.333998038667727   0.110769075830979   1.0000000
N2   N   0.096209162469595   0.476400454633929   0.110660702580401   1.0000000
N2   N   0.095946924192595   0.619791061881792   0.110708301917539   1.0000000
N2   N   0.096605201271059   0.763141554520289   0.110708888330493   1.0000000
N2   N   0.240006073121241   0.907031235116442   0.110712273701204   1.0000000
N2   N   0.242027559362263   0.050572315560242   0.110692486862155   1.0000000
N2   N   0.246569141664619   0.196455917791677   0.110727468914253   1.0000000
N2   N   0.243959761991362   0.336732038148966   0.110757883564542   1.0000000
N2   N   0.236278565900092   0.477012936723821   0.110690834841498   1.0000000
N2   N   0.235545796539711   0.620611742062974   0.110686805965610   1.0000000
N2   N   0.238613994590782   0.764108736967881   0.110787740846148   1.0000000
N2   N   0.382420289510021   0.907158175661740   0.110756235153719   1.0000000
N2   N   0.383791195167200   0.049731674254470   0.110740492631866   1.0000000
N2   N   0.386361443058093   0.193972215009518   0.110769338985355   1.0000000
N2   N   0.396685600410790   0.345792663535227   0.110816178172471   1.0000000
N2   N   0.376433600845834   0.479803996029222   0.110683033129694   1.0000000
N2   N   0.373042728302548   0.621535860015247   0.110539992278881   1.0000000
N2   N   0.380657400743215   0.764955878718435   0.110761495135649   1.0000000
N2   N   0.525392972771312   0.906642410562667   0.110730016377825   1.0000000
N2   N   0.526537319343795   0.048123625587676   0.110700028497830   1.0000000
N2   N   0.527873805292422   0.189627876140710   0.110729402539342   1.0000000
N2   N   0.531021970562368   0.331726019651274   0.110770458821913   1.0000000
N2   N   0.465245166278350   0.525047185203052   0.110580505710225   1.0000000
N2   N   0.496720197503856   0.610425230699044   0.111055941123423   1.0000000
N2   N   0.523436193342044   0.764083719875123   0.110768967636496   1.0000000
N2   N   0.669560434891141   0.909520189069522   0.110690007835686   1.0000000
N2   N   0.670127828499897   0.048799183531563   0.110689358760278   1.0000000
N2   N   0.670939739877559   0.188672235485483   0.110678833087497   1.0000000
N2   N   0.672893467185967   0.328127560680443   0.110680975997040   1.0000000
N2   N   0.673257113042530   0.466111178459783   0.110719925077175   1.0000000
N2   N   0.670179705150771   0.592476320537123   0.110914445385156   1.0000000
N2   N   0.675286830989320   0.779240265583785   0.110914537685118   1.0000000
N2   N   0.814936420166835   0.908012631900134   0.110641351336207   1.0000000
N2   N   0.813826803997113   0.048842829237795   0.110710996752706   1.0000000
N2   N   0.813965190313886   0.190022140648627   0.110683599095047   1.0000000
N2   N   0.814635041937561   0.331335046252047   0.110656550098515   1.0000000
N2   N   0.814858277771761   0.472986731169902   0.110692885726669   1.0000000
N2   N   0.814321799692129   0.614742757122025   0.110734680005039   1.0000000
N2   N   0.807151773652055   0.756533733731739   0.110753250444321   1.0000000


