data_1
_audit_creation_method   'vasp2cif'
_cell_length_a    14.93631414619966
_cell_length_b    14.936314146199727
_cell_length_c    13.341276283792837
_cell_angle_alpha    90.0
_cell_angle_beta    90.0
_cell_angle_gamma    119.99999999999984

_symmetry_space_group_name_H-M    'P 1'
loop_
_atom_site_label
_atom_site_type_symbol
_atom_site_fract_x
_atom_site_fract_y
_atom_site_fract_z
_atom_site_occupancy
P2   P   0.428662828102871   0.380998080718100   0.375000000000000   1.0000000
P2   P   0.571235140390267   0.452284236861798   0.375000000000000   1.0000000
N2   N   0.111075310623331   0.055504946459074   0.125256701983825   1.0000000
N2   N   0.611075277464959   0.555519760055964   0.125064745776290   1.0000000
N2   N   0.444409381227523   0.055524319083502   0.125302747853889   1.0000000
N2   N   0.944440717071188   0.555567029024750   0.125304060678790   1.0000000
N2   N   0.777763912196137   0.055548622764737   0.125105870915476   1.0000000
N2   N   0.111098119634234   0.722215726483782   0.624807130329851   1.0000000
N2   N   0.444409381227523   0.722218395477356   0.624697252146111   1.0000000
N2   N   0.277708771940460   0.222165752643706   0.624135216367981   1.0000000
N2   N   0.777769010047094   0.722202105480723   0.624778173530264   1.0000000
N2   N   0.611075475565296   0.222222718181022   0.624693658787882   1.0000000
N2   N   0.944430889215225   0.222228125098243   0.624891118998564   1.0000000
N2   N   0.277752370122136   0.722222612556946   0.125192988651004   1.0000000
N2   N   0.111074127834388   0.222203730583859   0.125260409553568   1.0000000
N2   N   0.444391630465718   0.222185549889963   0.125770162457118   1.0000000
N2   N   0.611075475565296   0.722186090717603   0.125306341212118   1.0000000
N2   N   0.944440717071188   0.722207021379773   0.125304060678790   1.0000000
N2   N   0.777761912613835   0.222229291343516   0.125131751579102   1.0000000
N2   N   0.111091763588649   0.888854506425560   0.624802794127384   1.0000000
N2   N   0.444417359441687   0.888875346387508   0.624841933022387   1.0000000
N2   N   0.277708771940460   0.388876352630083   0.624135216367981   1.0000000
N2   N   0.611075277464959   0.388888850742324   0.624935254223710   1.0000000
N2   N   0.777761912613835   0.888865954603647   0.624868248420898   1.0000000
N2   N   0.944432084408376   0.388906087376197   0.624836945847570   1.0000000
N2   N   0.111075310623331   0.388903697497585   0.125256701983825   1.0000000
N2   N   0.277752370122136   0.888863090898518   0.125192988651004   1.0000000
N2   N   0.611085263828048   0.888872594944976   0.125156022266533   1.0000000
N2   N   0.444266069793129   0.388799701563229   0.126841375284218   1.0000000
N2   N   0.944432084408376   0.888859330365507   0.125163054152431   1.0000000
N2   N   0.777769010047094   0.388900237899700   0.125221826469736   1.0000000
N2   N   0.277743564954843   0.555566658455562   0.624558925272815   1.0000000
N2   N   0.111075310623331   0.055504946459074   0.624743298016175   1.0000000
N2   N   0.611075277464959   0.555519760055964   0.624935254223710   1.0000000
N2   N   0.444409381227523   0.055524319083502   0.624697252146111   1.0000000
N2   N   0.944440717071188   0.555567029024750   0.624695939321210   1.0000000
N2   N   0.111091763588649   0.555570590496417   0.125197205872616   1.0000000
N2   N   0.777763912196137   0.055548622764737   0.624894129084525   1.0000000
N2   N   0.277743564954843   0.055510239832617   0.125441074727186   1.0000000
N2   N   0.444391630465718   0.555539413909091   0.125770162457118   1.0000000
N2   N   0.777759761963734   0.555546547648535   0.125453028669643   1.0000000
N2   N   0.611085263828048   0.055546002216400   0.125156022266533   1.0000000
N2   N   0.444391630465718   0.555539413909091   0.624229837542883   1.0000000
N2   N   0.944430889215225   0.055536097450316   0.125108881001436   1.0000000
N2   N   0.277752370122136   0.722222612556946   0.624807011348997   1.0000000
N2   N   0.111074127834388   0.222203730583859   0.624739590446433   1.0000000
N2   N   0.444391630465718   0.222185549889963   0.624229837542883   1.0000000
N2   N   0.611075475565296   0.722186090717603   0.624693658787882   1.0000000
N2   N   0.944440717071188   0.722207021379773   0.624695939321210   1.0000000
N2   N   0.777761912613835   0.222229291343516   0.624868248420898   1.0000000
N2   N   0.111098119634234   0.722215726483782   0.125192869670149   1.0000000
N2   N   0.444409381227523   0.722218395477356   0.125302747853889   1.0000000
N2   N   0.277708771940460   0.222165752643706   0.125864783632020   1.0000000
N2   N   0.777769010047094   0.722202105480723   0.125221826469736   1.0000000
N2   N   0.611075475565296   0.222222718181022   0.125306341212118   1.0000000
N2   N   0.944430889215225   0.222228125098243   0.125108881001436   1.0000000
N2   N   0.111075310623331   0.388903697497585   0.624743298016175   1.0000000
N2   N   0.277752370122136   0.888863090898518   0.624807011348997   1.0000000
N2   N   0.611085263828048   0.888872594944976   0.624843977733467   1.0000000
N2   N   0.444266069793129   0.388799701563229   0.623158624715782   1.0000000
N2   N   0.944432084408376   0.888859330365507   0.624836945847570   1.0000000
N2   N   0.111091763588649   0.888854506425560   0.125197205872616   1.0000000
N2   N   0.777769010047094   0.388900237899700   0.624778173530264   1.0000000
N2   N   0.444417359441687   0.888875346387508   0.125158066977613   1.0000000
N2   N   0.277708771940460   0.388876352630083   0.125864783632020   1.0000000
N2   N   0.277743564954843   0.555566658455562   0.125441074727186   1.0000000
N2   N   0.611075277464959   0.388888850742324   0.125064745776290   1.0000000
N2   N   0.777761912613835   0.888865954603647   0.125131751579102   1.0000000
N2   N   0.944432084408376   0.388906087376197   0.125163054152431   1.0000000
N2   N   0.111091763588649   0.555570590496417   0.624802794127384   1.0000000
N2   N   0.277743564954843   0.055510239832617   0.624558925272815   1.0000000
N2   N   0.777759761963734   0.555546547648535   0.624546971330357   1.0000000
N2   N   0.611085263828048   0.055546002216400   0.624843977733467   1.0000000
N2   N   0.944430889215225   0.055536097450316   0.624891118998564   1.0000000
N2   N   0.054382590166289   0.110348847906697   0.375000000000000   1.0000000
N2   N   0.555615291293368   0.620763417427378   0.375000000000000   1.0000000
N2   N   0.387209076429854   0.106419379621513   0.375000000000000   1.0000000
N2   N   0.890941003979216   0.612137168656279   0.375000000000000   1.0000000
N2   N   0.722653488044363   0.110346209726094   0.375000000000000   1.0000000
N2   N   0.055549593114135   0.777779589121701   0.875000000000000   1.0000000
N2   N   0.388897835161534   0.777780503535753   0.875000000000000   1.0000000
N2   N   0.222221519828117   0.277777426580726   0.875000000000000   1.0000000
N2   N   0.722219955807053   0.777780059077399   0.875000000000000   1.0000000
N2   N   0.555553349319662   0.277777291004426   0.875000000000000   1.0000000
N2   N   0.888887058929375   0.277773402685646   0.875000000000000   1.0000000
N2   N   0.221696029095191   0.777514681214263   0.375000000000000   1.0000000
N2   N   0.054382590166289   0.277367075592928   0.375000000000000   1.0000000
N2   N   0.378125004193169   0.262522013276848   0.375000000000000   1.0000000
N2   N   0.555222744699021   0.781792952938230   0.375000000000000   1.0000000
N2   N   0.892528878678037   0.781249038980830   0.375000000000000   1.0000000
N2   N   0.723899656494029   0.275839232797876   0.375000000000000   1.0000000
N2   N   0.055551233964300   0.944449564568091   0.875000000000000   1.0000000
N2   N   0.388897835161534   0.944450664959116   0.875000000000000   1.0000000
N2   N   0.222222313368305   0.444436726454248   0.875000000000000   1.0000000
N2   N   0.555546337582303   0.444439835457816   0.875000000000000   1.0000000
N2   N   0.722222327352431   0.944446336098307   0.875000000000000   1.0000000
N2   N   0.888883224878579   0.444436399832873   0.875000000000000   1.0000000
N2   N   0.055142969707719   0.444741383515954   0.375000000000000   1.0000000
N2   N   0.221264539285433   0.942736090599108   0.375000000000000   1.0000000
N2   N   0.555235408754848   0.944284371044088   0.375000000000000   1.0000000
N2   N   0.378125004193169   0.448936324249657   0.375000000000000   1.0000000
N2   N   0.889479352525480   0.945525494278113   0.375000000000000   1.0000000
N2   N   0.731005880728150   0.443932369054118   0.375000000000000   1.0000000
N2   N   0.222223893117459   0.611104295465376   0.875000000000000   1.0000000
N2   N   0.055550582066103   0.111111076942018   0.875000000000000   1.0000000
N2   N   0.555553349319662   0.611109391648572   0.875000000000000   1.0000000
N2   N   0.388894898990105   0.111118469439357   0.875000000000000   1.0000000
N2   N   0.888878414269770   0.611105873801556   0.875000000000000   1.0000000
N2   N   0.055988210278926   0.611514262690444   0.375000000000000   1.0000000
N2   N   0.722222327352431   0.111109324587459   0.875000000000000   1.0000000
N2   N   0.217674892968952   0.105832908226777   0.375000000000000   1.0000000
N2   N   0.387209076429854   0.614123030141684   0.375000000000000   1.0000000
N2   N   0.731005880728150   0.620406845007367   0.375000000000000   1.0000000
N2   N   0.555222744699021   0.106763125094127   0.375000000000000   1.0000000
N2   N   0.388894898990105   0.611109762884092   0.875000000000000   1.0000000
N2   N   0.888860413624723   0.111096873479033   0.375000000000000   1.0000000
N2   N   0.222225483741079   0.777779408537208   0.875000000000000   1.0000000
N2   N   0.055550582066103   0.277772838457421   0.875000000000000   1.0000000
N2   N   0.388893491935442   0.277784704446861   0.875000000000000   1.0000000
N2   N   0.555559904450962   0.777780963350241   0.875000000000000   1.0000000
N2   N   0.888883224878579   0.777780158379042   0.875000000000000   1.0000000
N2   N   0.722219955807053   0.277773230062989   0.875000000000000   1.0000000
N2   N   0.055988210278926   0.777807280921817   0.375000000000000   1.0000000
N2   N   0.387984416337695   0.778597685505091   0.375000000000000   1.0000000
N2   N   0.219226198759896   0.276279766046616   0.375000000000000   1.0000000
N2   N   0.723899656494029   0.781393757029488   0.375000000000000   1.0000000
N2   N   0.555615291293368   0.268185207199325   0.375000000000000   1.0000000
N2   N   0.889479352525480   0.277287191580704   0.375000000000000   1.0000000
N2   N   0.055551233964300   0.444435002729538   0.875000000000000   1.0000000
N2   N   0.222223893117459   0.944452930985419   0.875000000000000   1.0000000
N2   N   0.555560012302844   0.944446672818085   0.875000000000000   1.0000000
N2   N   0.388893491935442   0.444442120821916   0.875000000000000   1.0000000
N2   N   0.888887058929375   0.944446989577065   0.875000000000000   1.0000000
N2   N   0.055142969707719   0.943734919525092   0.375000000000000   1.0000000
N2   N   0.722213049102199   0.444438595814102   0.875000000000000   1.0000000
N2   N   0.387984416337695   0.942720064165940   0.375000000000000   1.0000000
N2   N   0.217674892968952   0.445175318075512   0.375000000000000   1.0000000
N2   N   0.221264539285433   0.611861782019660   0.375000000000000   1.0000000
N2   N   0.722653488044363   0.945640611651604   0.375000000000000   1.0000000
N2   N   0.892528878678037   0.444613173030544   0.375000000000000   1.0000000
N2   N   0.055549593114135   0.611103337325770   0.875000000000000   1.0000000
N2   N   0.222222313368305   0.111118920247393   0.875000000000000   1.0000000
N2   N   0.722213049102199   0.611107786621433   0.875000000000000   1.0000000
N2   N   0.555559904450962   0.111112274434057   0.875000000000000   1.0000000
N2   N   0.888886707993369   0.111110020663356   0.875000000000000   1.0000000
B2   B   0.107404827562115   0.052663945611531   0.375000000000000   1.0000000
B2   B   0.624974089137150   0.584204233004601   0.375000000000000   1.0000000
B2   B   0.444249876201737   0.051891026537378   0.375000000000000   1.0000000
B2   B   0.946127350440241   0.555761883748754   0.375000000000000   1.0000000
B2   B   0.778357853163961   0.055845593248648   0.375000000000000   1.0000000
B2   B   0.111113543170061   0.722223438251695   0.875000000000000   1.0000000
B2   B   0.444463102634597   0.722286865228921   0.875000000000000   1.0000000
B2   B   0.277698750694048   0.222158831878269   0.875000000000000   1.0000000
B2   B   0.777822582746983   0.722292088724941   0.875000000000000   1.0000000
B2   B   0.611153867372345   0.222170948618518   0.875000000000000   1.0000000
B2   B   0.944401525943347   0.222190554059418   0.875000000000000   1.0000000
B2   B   0.277133556104743   0.722795880398463   0.375000000000000   1.0000000
B2   B   0.107349945508753   0.220341639421040   0.375000000000000   1.0000000
B2   B   0.444388524048882   0.213792424833017   0.375000000000000   1.0000000
B2   B   0.613096671790366   0.731280444969887   0.375000000000000   1.0000000
B2   B   0.946127350440241   0.723698800024823   0.375000000000000   1.0000000
B2   B   0.779141681889845   0.220600086179282   0.375000000000000   1.0000000
B2   B   0.111092943005386   0.888875589267327   0.875000000000000   1.0000000
B2   B   0.444465732852428   0.888899533092879   0.875000000000000   1.0000000
B2   B   0.277698750694048   0.388873252149108   0.875000000000000   1.0000000
B2   B   0.611160195846965   0.388874814732316   0.875000000000000   1.0000000
B2   B   0.777796581038118   0.888941471905660   0.875000000000000   1.0000000
B2   B   0.944437458665102   0.388862131316758   0.875000000000000   1.0000000
B2   B   0.107404827562115   0.388074215283912   0.375000000000000   1.0000000
B2   B   0.277133556104743   0.887671009039607   0.375000000000000   1.0000000
B2   B   0.611994816208603   0.891661317955044   0.375000000000000   1.0000000
B2   B   0.945614293182112   0.890928093257103   0.375000000000000   1.0000000
B2   B   0.784294241112650   0.386986553798218   0.375000000000000   1.0000000
B2   B   0.277746370217561   0.555580782781520   0.875000000000000   1.0000000
B2   B   0.111044573337709   0.055514715017594   0.875000000000000   1.0000000
B2   B   0.611160195846965   0.555618714447978   0.875000000000000   1.0000000
B2   B   0.444463102634597   0.055509570739011   0.875000000000000   1.0000000
B2   B   0.944466428076293   0.555552737344607   0.875000000000000   1.0000000
B2   B   0.110515084040300   0.555727450415877   0.375000000000000   1.0000000
B2   B   0.777781468140079   0.055557400736708   0.875000000000000   1.0000000
B2   B   0.275444360258975   0.051838377458015   0.375000000000000   1.0000000
B2   B   0.444388524048882   0.563929432549200   0.375000000000000   1.0000000
B2   B   0.782224870108675   0.557779101721005   0.375000000000000   1.0000000
B2   B   0.611994816208603   0.053666831586887   0.375000000000000   1.0000000
B2   B   0.444450465638709   0.555627825752705   0.875000000000000   1.0000000
B2   B   0.943719928871349   0.055669979511275   0.375000000000000   1.0000000
B2   B   0.277778904530436   0.722239562400010   0.875000000000000   1.0000000
B2   B   0.111014077637835   0.222173705485582   0.875000000000000   1.0000000
B2   B   0.444450465638709   0.222155973219341   0.875000000000000   1.0000000
B2   B   0.611153867372345   0.722316252087156   0.875000000000000   1.0000000
B2   B   0.944466428076293   0.722247024065022   0.875000000000000   1.0000000
B2   B   0.777796581038118   0.222188442465786   0.875000000000000   1.0000000
B2   B   0.111209033403791   0.722271183368560   0.375000000000000   1.0000000
B2   B   0.444249876201737   0.725692182997695   0.375000000000000   1.0000000
B2   B   0.266286981278424   0.212707083933213   0.375000000000000   1.0000000
B2   B   0.784294241112650   0.730641020647760   0.375000000000000   1.0000000
B2   B   0.613096671790366   0.215149560153808   0.375000000000000   1.0000000
B2   B   0.943719928871349   0.221383282693410   0.375000000000000   1.0000000
B2   B   0.111044573337709   0.388863191653443   0.875000000000000   1.0000000
B2   B   0.277778904530436   0.888872675463754   0.875000000000000   1.0000000
B2   B   0.611141261987789   0.888936775524467   0.875000000000000   1.0000000
B2   B   0.444444485456320   0.388888909394825   0.875000000000000   1.0000000
B2   B   0.944437458665102   0.888908660681673   0.875000000000000   1.0000000
B2   B   0.110515084040300   0.888120966957752   0.375000000000000   1.0000000
B2   B   0.777822582746983   0.388863827355371   0.875000000000000   1.0000000
B2   B   0.444375034087455   0.888854183710392   0.375000000000000   1.0000000
B2   B   0.266286981278424   0.386913230678539   0.375000000000000   1.0000000
B2   B   0.275444360258975   0.556939316134295   0.375000000000000   1.0000000
B2   B   0.624974089137150   0.374103189465879   0.375000000000000   1.0000000
B2   B   0.779141681889845   0.891874929043892   0.375000000000000   1.0000000
B2   B   0.945614293182112   0.388019533258340   0.375000000000000   1.0000000
B2   B   0.111092943005386   0.555550687071387   0.875000000000000   1.0000000
B2   B   0.277746370217561   0.055498920769377   0.875000000000000   1.0000000
B2   B   0.777833447715871   0.555583390524604   0.875000000000000   1.0000000
B2   B   0.611141261987789   0.055537819796650   0.875000000000000   1.0000000
B2   B   0.944401525943347   0.055544305217264   0.875000000000000   1.0000000
B2   B   0.055383104889095   0.110963272915561   0.124708197549198   1.0000000
B2   B   0.555620198175364   0.611346627147923   0.124400072640456   1.0000000
B2   B   0.388751206317671   0.110768097660019   0.124758972075375   1.0000000
B2   B   0.889099909552338   0.611216621442840   0.124823566180402   1.0000000
B2   B   0.722232270498581   0.111074519572696   0.124751237739691   1.0000000
B2   B   0.055594335386903   0.777753334621471   0.625199463393791   1.0000000
B2   B   0.388805787271908   0.777840624466887   0.625244074514755   1.0000000
B2   B   0.221882571188475   0.277607952260906   0.625301134318644   1.0000000
B2   B   0.722327677824043   0.777931026645886   0.625354482576491   1.0000000
B2   B   0.555620198175364   0.277606904360778   0.625599927359544   1.0000000
B2   B   0.888886243100041   0.277778777885662   0.625266723196132   1.0000000
B2   B   0.222166628552903   0.777749980943120   0.124771748158655   1.0000000
B2   B   0.055383104889095   0.277753165306870   0.124708197549198   1.0000000
B2   B   0.388635916231590   0.277376854193206   0.124526424191660   1.0000000
B2   B   0.555541137750128   0.777925468987495   0.124726794780105   1.0000000
B2   B   0.889018379191430   0.777849053075510   0.124743798507083   1.0000000
B2   B   0.722327677824043   0.277729984511493   0.124645517423509   1.0000000
B2   B   0.055480114799491   0.944301497699196   0.625254012652568   1.0000000
B2   B   0.388805787271908   0.944298496138356   0.625244074514755   1.0000000
B2   B   0.221964340234707   0.444549184553354   0.625221804437110   1.0000000
B2   B   0.555746508050428   0.444539920691878   0.625707916873230   1.0000000
B2   B   0.722232270498581   0.944491084259220   0.625248762260309   1.0000000
B2   B   0.889018379191430   0.444502659449255   0.625256201492917   1.0000000
B2   B   0.055480114799491   0.444511950433622   0.124745987347432   1.0000000
B2   B   0.222109606181643   0.944226201943425   0.124777761175409   1.0000000
B2   B   0.555525136280361   0.944429234806844   0.124749785718624   1.0000000
B2   B   0.388635916231590   0.444592395371720   0.124526424191660   1.0000000
B2   B   0.888886243100041   0.944440798547714   0.124733276803868   1.0000000
B2   B   0.722481250395119   0.444507566575145   0.124306124424057   1.0000000
B2   B   0.222109606181643   0.611216737571554   0.625222238824592   1.0000000
B2   B   0.055383104889095   0.110963272915561   0.625291802450802   1.0000000
B2   B   0.555620198175364   0.611346627147923   0.625599927359544   1.0000000
B2   B   0.388751206317671   0.110768097660019   0.625241027924625   1.0000000
B2   B   0.889099909552338   0.611216621442840   0.625176433819597   1.0000000
B2   B   0.055594335386903   0.611174334098769   0.124800536606210   1.0000000
B2   B   0.722232270498581   0.111074519572696   0.625248762260309   1.0000000
B2   B   0.221964340234707   0.110748489014688   0.124778195562889   1.0000000
B2   B   0.388751206317671   0.611316441990995   0.124758972075375   1.0000000
B2   B   0.722481250395119   0.611307017153310   0.124306124424057   1.0000000
B2   B   0.555541137750128   0.110949002095969   0.124726794780105   1.0000000
B2   B   0.388751206317671   0.611316441990995   0.625241027924625   1.0000000
B2   B   0.888836420657526   0.111084876995434   0.124741906974900   1.0000000
B2   B   0.222166628552903   0.777749980943120   0.625228251841345   1.0000000
B2   B   0.055383104889095   0.277753165306870   0.625291802450802   1.0000000
B2   B   0.388635916231590   0.277376854193206   0.625473575808341   1.0000000
B2   B   0.555541137750128   0.777925468987495   0.625273205219895   1.0000000
B2   B   0.889018379191430   0.777849053075510   0.625256201492917   1.0000000
B2   B   0.722327677824043   0.277729984511493   0.625354482576491   1.0000000
B2   B   0.055594335386903   0.777753334621471   0.124800536606210   1.0000000
B2   B   0.388805787271908   0.777840624466887   0.124755925485244   1.0000000
B2   B   0.221882571188475   0.277607952260906   0.124698865681356   1.0000000
B2   B   0.722327677824043   0.777931026645886   0.124645517423509   1.0000000
B2   B   0.555620198175364   0.277606904360778   0.124400072640456   1.0000000
B2   B   0.888886243100041   0.277778777885662   0.124733276803868   1.0000000
B2   B   0.055480114799491   0.444511950433622   0.625254012652568   1.0000000
B2   B   0.222109606181643   0.944226201943425   0.625222238824592   1.0000000
B2   B   0.555525136280361   0.944429234806844   0.625250214281377   1.0000000
B2   B   0.388635916231590   0.444592395371720   0.625473575808341   1.0000000
B2   B   0.888886243100041   0.944440798547714   0.625266723196132   1.0000000
B2   B   0.055480114799491   0.944301497699196   0.124745987347432   1.0000000
B2   B   0.722481250395119   0.444507566575145   0.625693875575943   1.0000000
B2   B   0.388805787271908   0.944298496138356   0.124755925485244   1.0000000
B2   B   0.221964340234707   0.444549184553354   0.124778195562889   1.0000000
B2   B   0.222109606181643   0.611216737571554   0.124777761175409   1.0000000
B2   B   0.555746508050428   0.444539920691878   0.124292083126769   1.0000000
B2   B   0.722232270498581   0.944491084259220   0.124751237739691   1.0000000
B2   B   0.889018379191430   0.444502659449255   0.124743798507083   1.0000000
B2   B   0.055594335386903   0.611174334098769   0.625199463393791   1.0000000
B2   B   0.221964340234707   0.110748489014688   0.625221804437110   1.0000000
B2   B   0.722481250395119   0.611307017153310   0.625693875575943   1.0000000
B2   B   0.555541137750128   0.110949002095969   0.625273205219895   1.0000000
B2   B   0.888836420657526   0.111084876995434   0.625258093025100   1.0000000


