data_1
_audit_creation_method   'vasp2cif'
_cell_length_a    17.52789999999977
_cell_length_b    17.52789999999977
_cell_length_c    15.0
_cell_angle_alpha    90.0
_cell_angle_beta    90.0
_cell_angle_gamma    119.99999999999916

_symmetry_space_group_name_H-M    'P 1'
loop_
_atom_site_label
_atom_site_type_symbol
_atom_site_fract_x
_atom_site_fract_y
_atom_site_fract_z
_atom_site_occupancy
Se2   Se   0.523312621263650   0.492559744211511   0.110987336575002   1.0000000
B2   B   0.906655720582266   0.953434008290143   0.111005022457453   1.0000000
B2   B   0.903429375971853   0.093747221276937   0.111047290820248   1.0000000
B2   B   0.902652676941703   0.236096861380227   0.111043183784037   1.0000000
B2   B   0.903444755751514   0.379526295105882   0.110973807039685   1.0000000
B2   B   0.906856646037291   0.523917287915686   0.110994482424046   1.0000000
B2   B   0.910395417484197   0.668758922463451   0.110987833893265   1.0000000
B2   B   0.910767071041351   0.813192763387868   0.111004425819638   1.0000000
B2   B   0.050160809813623   0.954022992860348   0.110952876727713   1.0000000
B2   B   0.047777170194038   0.095539633822429   0.110962986784775   1.0000000
B2   B   0.045115534016427   0.236510496940566   0.110971090423321   1.0000000
B2   B   0.044444508122046   0.379214839435546   0.110966737741263   1.0000000
B2   B   0.045973844566650   0.523208366582778   0.110975782603928   1.0000000
B2   B   0.049287127101279   0.667463671308760   0.111019472487588   1.0000000
B2   B   0.050917447203877   0.811250421978487   0.111020172376098   1.0000000
B2   B   0.192215573369339   0.953268188085901   0.110997079393579   1.0000000
B2   B   0.190487783942259   0.095243811036823   0.111026854079098   1.0000000
B2   B   0.189153806482956   0.238349096938580   0.111022427301148   1.0000000
B2   B   0.185702610531507   0.379192741198802   0.110989163842074   1.0000000
B2   B   0.185011090920915   0.522771759188153   0.110986313938706   1.0000000
B2   B   0.188811620874513   0.666657045164572   0.111049115303777   1.0000000
B2   B   0.191848992822404   0.810191629567585   0.110999264179868   1.0000000
B2   B   0.334195434010927   0.952163361949757   0.111045234056243   1.0000000
B2   B   0.333823463397441   0.095167406289014   0.111098772679508   1.0000000
B2   B   0.330317285975179   0.236119410374410   0.111092441243214   1.0000000
B2   B   0.330693420855540   0.383861430981404   0.111157331341681   1.0000000
B2   B   0.322138364795146   0.522272475873402   0.111074276081036   1.0000000
B2   B   0.328328766032154   0.665926685664210   0.111023937391670   1.0000000
B2   B   0.333361939902565   0.808977409786316   0.111054351173076   1.0000000
B2   B   0.476123542873747   0.949518153148388   0.110986847972280   1.0000000
B2   B   0.476337977418840   0.093549461189869   0.111041089065213   1.0000000
B2   B   0.476022248318635   0.236273811327746   0.111053864017154   1.0000000
B2   B   0.467990421657770   0.369815002701866   0.111084851360835   1.0000000
B2   B   0.463537978167887   0.557625090478578   0.111477345282511   1.0000000
B2   B   0.466836762180938   0.654548900437926   0.111177592587975   1.0000000
B2   B   0.475186261977009   0.803954134260540   0.111015978531043   1.0000000
B2   B   0.617883255392087   0.948941170067441   0.111006068625006   1.0000000
B2   B   0.618322792131337   0.092948561115099   0.111012346079409   1.0000000
B2   B   0.618905437386088   0.236840135176605   0.110965970445546   1.0000000
B2   B   0.620633149028851   0.381266490370097   0.111003092439352   1.0000000
B2   B   0.641636421024714   0.536007176037975   0.111092710606424   1.0000000
B2   B   0.631630623825233   0.670765381191586   0.111127801364177   1.0000000
B2   B   0.617318738108965   0.804805878958731   0.111050216622793   1.0000000
B2   B   0.760939514227926   0.950305543176273   0.111043560824935   1.0000000
B2   B   0.760379201004660   0.092871055581942   0.111091238938052   1.0000000
B2   B   0.760756187014248   0.236211880886881   0.111012999193642   1.0000000
B2   B   0.762392730477940   0.380104949131994   0.110953365011880   1.0000000
B2   B   0.768819992667710   0.525391414260085   0.110986650354037   1.0000000
B2   B   0.775018040678734   0.673606633303043   0.110993509604158   1.0000000
B2   B   0.766469021580224   0.811694310591511   0.110996999621847   1.0000000
N2   N   0.955838125519162   0.907305347038605   0.110969295995796   1.0000000
N2   N   0.952809059189447   0.047963065064921   0.110983595626189   1.0000000
N2   N   0.950220317640389   0.188657510305059   0.111007668468976   1.0000000
N2   N   0.949759012927657   0.331210377354864   0.110982286087932   1.0000000
N2   N   0.951631978592477   0.474852465538104   0.110954948169493   1.0000000
N2   N   0.955006184293458   0.619329238427381   0.110991855203836   1.0000000
N2   N   0.956572450202875   0.763919919041965   0.111011846385474   1.0000000
N2   N   0.097543952147876   0.906225081014876   0.110947155752825   1.0000000
N2   N   0.096050833013226   0.048490406109271   0.110937963816220   1.0000000
N2   N   0.094181268637833   0.190345966361272   0.110956034256841   1.0000000
N2   N   0.091250491220132   0.331112252589661   0.110951283724607   1.0000000
N2   N   0.090991605866575   0.474323410622817   0.110953506991055   1.0000000
N2   N   0.094317291652226   0.618563388799670   0.111000561782530   1.0000000
N2   N   0.097093426994401   0.762728574700376   0.111000083086146   1.0000000
N2   N   0.239333735641862   0.905350539362340   0.110982409139624   1.0000000
N2   N   0.238958279057589   0.048301915415226   0.111040589590826   1.0000000
N2   N   0.236332631556732   0.189837034201600   0.111036939335974   1.0000000
N2   N   0.235453904708064   0.333495253349888   0.111015276414112   1.0000000
N2   N   0.229308500230289   0.473394523559834   0.110969703305958   1.0000000
N2   N   0.233611227241966   0.617903934109112   0.111026484470783   1.0000000
N2   N   0.238125211027903   0.761928164317197   0.111026581063869   1.0000000
N2   N   0.381184562756599   0.904061008062764   0.111019986481064   1.0000000
N2   N   0.381432911513252   0.047417911492917   0.111066631049917   1.0000000
N2   N   0.380723944862012   0.190501555489771   0.111071630553768   1.0000000
N2   N   0.375656071317144   0.330790967107127   0.111097104129586   1.0000000
N2   N   0.372463396626233   0.479014355312714   0.111254649644174   1.0000000
N2   N   0.371529740955268   0.616785542170571   0.110996153628604   1.0000000
N2   N   0.379685154965612   0.760696283853320   0.111026126114041   1.0000000
N2   N   0.522873047585628   0.900559379931148   0.110952956132508   1.0000000
N2   N   0.523421315793456   0.045330669175397   0.110982107782639   1.0000000
N2   N   0.523747442761885   0.189127947853022   0.110996246657952   1.0000000
N2   N   0.523967557826085   0.332166666353588   0.111012100895992   1.0000000
N2   N   0.521442391965837   0.753462637021578   0.111062152110133   1.0000000
N2   N   0.665316343899408   0.901105200654695   0.111004343479690   1.0000000
N2   N   0.665350997486557   0.044795877263193   0.111026891594446   1.0000000
N2   N   0.665738023437569   0.188661040774555   0.110974531867359   1.0000000
N2   N   0.666808500687953   0.332676417687568   0.110936988808084   1.0000000
N2   N   0.674072544254442   0.477336812384420   0.111015198214157   1.0000000
N2   N   0.682706998886298   0.627855699622486   0.111048373083271   1.0000000
N2   N   0.671252847960178   0.763102931877479   0.111003690770546   1.0000000
N2   N   0.811698633099716   0.905800449272324   0.110996534149571   1.0000000
N2   N   0.808191409477951   0.045597624989265   0.111062752726069   1.0000000
N2   N   0.807696564393345   0.188233870366478   0.111054948806753   1.0000000
N2   N   0.808440429253778   0.331607278057742   0.110949430677812   1.0000000
N2   N   0.812383320673373   0.475604486256824   0.110960398560733   1.0000000
N2   N   0.816591874329723   0.621014697721789   0.110952530898983   1.0000000
N2   N   0.817086675838318   0.766838785694650   0.110970463680050   1.0000000


