data_1
_audit_creation_method   'vasp2cif'
_cell_length_a    17.52789999999977
_cell_length_b    17.52789999999977
_cell_length_c    15.0
_cell_angle_alpha    90.0
_cell_angle_beta    90.0
_cell_angle_gamma    119.99999999999916

_symmetry_space_group_name_H-M    'P 1'
loop_
_atom_site_label
_atom_site_type_symbol
_atom_site_fract_x
_atom_site_fract_y
_atom_site_fract_z
_atom_site_occupancy
B2   B   0.904455071031529   0.952322216528148   0.110972770895171   1.0000000
B2   B   0.904826399050549   0.095273046780775   0.111044040224622   1.0000000
B2   B   0.904962837169197   0.238084298788741   0.111039654671185   1.0000000
B2   B   0.904658606633878   0.380780377281540   0.110974474712393   1.0000000
B2   B   0.902864245909327   0.523264809252329   0.110986838771855   1.0000000
B2   B   0.903310500812540   0.666069316639481   0.111029724561607   1.0000000
B2   B   0.903821060700649   0.809089579495635   0.110983067466459   1.0000000
B2   B   0.047034886096173   0.952242047494149   0.110956311588110   1.0000000
B2   B   0.047768411858545   0.095521820614337   0.110982443957266   1.0000000
B2   B   0.048229115649707   0.238265668961767   0.111009287561554   1.0000000
B2   B   0.048235659308551   0.380925245152674   0.111018350381016   1.0000000
B2   B   0.047533651862619   0.523553621325735   0.110996780568473   1.0000000
B2   B   0.046794927093819   0.666396807939082   0.111010949887384   1.0000000
B2   B   0.046922241848021   0.809399924387492   0.110971239137739   1.0000000
B2   B   0.190272689001093   0.952796295656188   0.110958655848829   1.0000000
B2   B   0.190240087743913   0.095475574125694   0.111007640514872   1.0000000
B2   B   0.191873097002147   0.238848310850757   0.111036161391119   1.0000000
B2   B   0.191958645102680   0.380727562599780   0.111025896343629   1.0000000
B2   B   0.192162611851181   0.523646194053055   0.111012946757357   1.0000000
B2   B   0.190158973063464   0.666588924336964   0.111043799137195   1.0000000
B2   B   0.190066357237667   0.809692018775963   0.110988000207013   1.0000000
B2   B   0.333273199539661   0.952895471537596   0.110990903017659   1.0000000
B2   B   0.333853994606823   0.096565503595864   0.111005371194749   1.0000000
B2   B   0.335078559097409   0.240860958026781   0.111079195115020   1.0000000
B2   B   0.337296795887266   0.377570109012893   0.111127710745530   1.0000000
B2   B   0.337586428868029   0.524955916722965   0.111093051974308   1.0000000
B2   B   0.333103189047327   0.666952565824300   0.111058025784393   1.0000000
B2   B   0.333063352094200   0.809768724261681   0.111038158068910   1.0000000
B2   B   0.476045818760670   0.952373136522918   0.110995572790876   1.0000000
B2   B   0.476357660284187   0.095467659928878   0.110969771335032   1.0000000
B2   B   0.477630709619727   0.241213031806499   0.111052928663739   1.0000000
B2   B   0.475357086350484   0.666757892875236   0.111079247431912   1.0000000
B2   B   0.475944683003669   0.809519423909551   0.111030824026129   1.0000000
B2   B   0.618843520754676   0.952377762119273   0.111019035009965   1.0000000
B2   B   0.618963907851675   0.095149520659167   0.110986643894098   1.0000000
B2   B   0.618516123825221   0.237815404595882   0.111001952035698   1.0000000
B2   B   0.613720768791372   0.376517411598461   0.111110570183625   1.0000000
B2   B   0.614786910540171   0.523996559813263   0.111187667253267   1.0000000
B2   B   0.618515152376736   0.667087491933408   0.111109410819404   1.0000000
B2   B   0.618691092750483   0.809749079538364   0.110993942728984   1.0000000
B2   B   0.761718657647580   0.952352493007749   0.111012856325846   1.0000000
B2   B   0.761863699455511   0.095167047334342   0.111053194246494   1.0000000
B2   B   0.761739616489009   0.237899480533141   0.111005963914676   1.0000000
B2   B   0.760839078796611   0.380128395066063   0.111003232020961   1.0000000
B2   B   0.757645289504665   0.522834019834652   0.111048675704912   1.0000000
B2   B   0.760307868785988   0.665916190995255   0.111077503762450   1.0000000
B2   B   0.761339625461022   0.809368897295458   0.110998106225806   1.0000000
C2   C   0.482283057367729   0.526602762489289   0.111226219021018   1.0000000
N2   N   0.951280079395949   0.904062706768373   0.110937354954129   1.0000000
N2   N   0.951896886297515   0.047312178794803   0.110978591945632   1.0000000
N2   N   0.952470304241413   0.190446654441788   0.111027039459484   1.0000000
N2   N   0.952851917002735   0.333517148062988   0.110995975493670   1.0000000
N2   N   0.952009580595726   0.476330343103481   0.110959226136966   1.0000000
N2   N   0.951288630714572   0.618816909645199   0.110996841433369   1.0000000
N2   N   0.951175648058121   0.761329424590492   0.110984074730266   1.0000000
N2   N   0.094301971014871   0.904208928489468   0.110934066172760   1.0000000
N2   N   0.094063699557505   0.046842106005905   0.110960570651510   1.0000000
N2   N   0.095161379219099   0.190622890208371   0.110982868493983   1.0000000
N2   N   0.095942799140315   0.333847035251159   0.110991945616094   1.0000000
N2   N   0.096336875231596   0.476511506001680   0.110992900397422   1.0000000
N2   N   0.094905028297611   0.618943203582594   0.110998452956654   1.0000000
N2   N   0.094476039684845   0.761541439563088   0.110971678397949   1.0000000
N2   N   0.237517453028412   0.904334958134425   0.110955209958675   1.0000000
N2   N   0.237267847691650   0.046955317965104   0.110965191354050   1.0000000
N2   N   0.236693500387935   0.189302861289250   0.111034790432331   1.0000000
N2   N   0.239024513867505   0.334807809259917   0.111043387344470   1.0000000
N2   N   0.241720112550949   0.477194118521918   0.111016769993816   1.0000000
N2   N   0.238379816952994   0.619080813037760   0.111030509502590   1.0000000
N2   N   0.237720782766099   0.761659690850562   0.111018086005116   1.0000000
N2   N   0.380683756512154   0.904365799839890   0.110993037924699   1.0000000
N2   N   0.380678559314163   0.046924445343393   0.110960881058142   1.0000000
N2   N   0.380474519813400   0.189511439759351   0.111020014909256   1.0000000
N2   N   0.378961055823196   0.331764665445085   0.111117753492734   1.0000000
N2   N   0.392656537741975   0.481314713431972   0.111172191742587   1.0000000
N2   N   0.381585451321694   0.619549021335884   0.111038269269376   1.0000000
N2   N   0.380818112917425   0.761784141563113   0.111030007960270   1.0000000
N2   N   0.523638123839664   0.904219402123963   0.110995412279443   1.0000000
N2   N   0.523864055130038   0.046757973458335   0.110962510858635   1.0000000
N2   N   0.524012530190277   0.189047472220595   0.110981725468888   1.0000000
N2   N   0.525293386811209   0.331904268115821   0.111091589772219   1.0000000
N2   N   0.522163756696091   0.617082576939894   0.111153234594781   1.0000000
N2   N   0.523606735678237   0.761478064777210   0.110999643373592   1.0000000
N2   N   0.666344556553518   0.904420923688859   0.110991698162979   1.0000000
N2   N   0.666692966374111   0.047135725774916   0.111011993201656   1.0000000
N2   N   0.667049454378015   0.189898226274306   0.110963408584673   1.0000000
N2   N   0.667781301932141   0.333018983392504   0.111025622798893   1.0000000
N2   N   0.660989023871570   0.476324111923001   0.111123107981334   1.0000000
N2   N   0.663669007766481   0.618239215073007   0.111109748187905   1.0000000
N2   N   0.665593512570261   0.761450917870333   0.110995933966712   1.0000000
N2   N   0.808836282303747   0.904281132233213   0.110978762874130   1.0000000
N2   N   0.809349243440649   0.047282943450605   0.111036535339993   1.0000000
N2   N   0.809761391630831   0.190252769599802   0.111023546450003   1.0000000
N2   N   0.809987363902102   0.333323081805886   0.110960747658538   1.0000000
N2   N   0.807484760968050   0.476357557394933   0.110979602926716   1.0000000
N2   N   0.807469498422210   0.618583509686946   0.111033149598357   1.0000000
N2   N   0.808041753783244   0.761165900786622   0.110992011357242   1.0000000


