data_1
_audit_creation_method   'vasp2cif'
_cell_length_a    17.52789999999977
_cell_length_b    17.52789999999977
_cell_length_c    15.0
_cell_angle_alpha    90.0
_cell_angle_beta    90.0
_cell_angle_gamma    119.99999999999916

_symmetry_space_group_name_H-M    'P 1'
loop_
_atom_site_label
_atom_site_type_symbol
_atom_site_fract_x
_atom_site_fract_y
_atom_site_fract_z
_atom_site_occupancy
Al2   Al   0.455964640037788   0.513697522642895   0.111039489391432   1.0000000
B2   B   0.905253191983061   0.952656186099530   0.111007479166294   1.0000000
B2   B   0.905010225066210   0.095318093416990   0.111022253690627   1.0000000
B2   B   0.904879224216903   0.238153958953953   0.111048560786928   1.0000000
B2   B   0.905010225066210   0.381120825340218   0.111022253690627   1.0000000
B2   B   0.905253191983061   0.524027411131534   0.111007479166294   1.0000000
B2   B   0.904950115100335   0.666813336088982   0.111047377658128   1.0000000
B2   B   0.904950115100335   0.809567184259354   0.111047377658128   1.0000000
B2   B   0.047527111936187   0.952088349005035   0.111014606775421   1.0000000
B2   B   0.047414770218001   0.094707024843568   0.111000393500289   1.0000000
B2   B   0.047153626012877   0.237553051541396   0.111012144246449   1.0000000
B2   B   0.047153626012877   0.381030979718480   0.111012144246449   1.0000000
B2   B   0.047414770218001   0.524138150622428   0.111000393500289   1.0000000
B2   B   0.047527111936187   0.666870879735149   0.111014606775421   1.0000000
B2   B   0.047554441119924   0.809493278961964   0.110995782823798   1.0000000
B2   B   0.190180060830198   0.952018135153744   0.110996223829300   1.0000000
B2   B   0.190047629696351   0.094343441939069   0.111050185712476   1.0000000
B2   B   0.189302012310240   0.236276943397428   0.111034979759514   1.0000000
B2   B   0.188621475959013   0.380025940603007   0.111021741702785   1.0000000
B2   B   0.189302012310240   0.524455474160814   0.111034979759514   1.0000000
B2   B   0.190047629696351   0.667134593005278   0.111050185712476   1.0000000
B2   B   0.190180060830198   0.809594042480460   0.110996223829300   1.0000000
B2   B   0.333005666173864   0.952218891488433   0.111024079446536   1.0000000
B2   B   0.333002718908452   0.094529123994244   0.111061466931121   1.0000000
B2   B   0.332672719437009   0.236386965169945   0.111065268841230   1.0000000
B2   B   0.328960097147603   0.374133192792099   0.111053437729230   1.0000000
B2   B   0.328960097147603   0.526257309602503   0.111053437729230   1.0000000
B2   B   0.332672719437009   0.667716159514063   0.111065268841230   1.0000000
B2   B   0.333002718908452   0.809904000161207   0.111061466931121   1.0000000
B2   B   0.476103664988254   0.952970417193620   0.111012410535129   1.0000000
B2   B   0.476103664988254   0.094563653041633   0.111012410535129   1.0000000
B2   B   0.476492563446523   0.236036698154833   0.111057957759166   1.0000000
B2   B   0.479180054126294   0.378026472356000   0.111042562773474   1.0000000
B2   B   0.479180054126294   0.672583987017293   0.111042562773474   1.0000000
B2   B   0.476492563446523   0.811886270538696   0.111057957759166   1.0000000
B2   B   0.619584522960213   0.953318856484678   0.111025149037633   1.0000000
B2   B   0.619271415440822   0.095350054565906   0.110999358656646   1.0000000
B2   B   0.619584522960213   0.237696071722534   0.111025149037633   1.0000000
B2   B   0.620560474223494   0.380398871446619   0.111027776984112   1.0000000
B2   B   0.620663824272086   0.523083614513418   0.111005707807526   1.0000000
B2   B   0.620663824272086   0.669010615006663   0.111005707807526   1.0000000
B2   B   0.620560474223494   0.811592008023873   0.111027776984112   1.0000000
B2   B   0.762750505517896   0.953226209618241   0.111011098237360   1.0000000
B2   B   0.762303348247988   0.095577359498266   0.111040740027420   1.0000000
B2   B   0.762303348247988   0.238154682440720   0.111040740027420   1.0000000
B2   B   0.762750505517896   0.380954701146655   0.111011098237360   1.0000000
B2   B   0.763153871062553   0.523902798145193   0.111027696824720   1.0000000
B2   B   0.762005931749258   0.666718168498627   0.111037288544126   1.0000000
B2   B   0.763153871062553   0.810681478165362   0.111027696824720   1.0000000
N2   N   0.952595589964356   0.904885669620307   0.111011937428050   1.0000000
N2   N   0.952781121090618   0.047921792398496   0.110982540963820   1.0000000
N2   N   0.952761272511886   0.190695433573505   0.111016991016655   1.0000000
N2   N   0.952761272511886   0.333492821056379   0.111016991016655   1.0000000
N2   N   0.952781121090618   0.476286310810119   0.110982540963820   1.0000000
N2   N   0.952595589964356   0.619138614019044   0.111011937428050   1.0000000
N2   N   0.952525831398834   0.761977262536919   0.111024463991568   1.0000000
N2   N   0.095225112522891   0.904731713492123   0.110974343447279   1.0000000
N2   N   0.095310125469066   0.047600915144581   0.111007645289927   1.0000000
N2   N   0.095263951342122   0.190421033812709   0.110990063950946   1.0000000
N2   N   0.095246092125338   0.333337392899670   0.110995555932395   1.0000000
N2   N   0.095263951342122   0.476271611203414   0.110990063950946   1.0000000
N2   N   0.095310125469066   0.619137903999489   0.111007645289927   1.0000000
N2   N   0.095225112522891   0.761923804261773   0.110974343447279   1.0000000
N2   N   0.237914296216215   0.904672350723607   0.110984232689678   1.0000000
N2   N   0.237955146776678   0.047462622072667   0.111022895254525   1.0000000
N2   N   0.238057624746186   0.190415747163687   0.111045001415865   1.0000000
N2   N   0.237657162655804   0.333419752170727   0.111016729105650   1.0000000
N2   N   0.237657162655804   0.475666104159071   0.111016729105650   1.0000000
N2   N   0.238057624746186   0.619070571257495   0.111045001415865   1.0000000
N2   N   0.237955146776678   0.761921218379014   0.111022895254525   1.0000000
N2   N   0.380780909329550   0.904807704284128   0.111020698749654   1.0000000
N2   N   0.380780909329550   0.047401898720426   0.111020698749654   1.0000000
N2   N   0.380869973762316   0.190156225244052   0.111050772715470   1.0000000
N2   N   0.381435784418483   0.333961492468671   0.111039163846768   1.0000000
N2   N   0.381435784418483   0.618902985624807   0.111039163846768   1.0000000
N2   N   0.380869973762316   0.762142442193266   0.111050772715470   1.0000000
N2   N   0.524058237863440   0.906058449259227   0.111015315844044   1.0000000
N2   N   0.523914006969902   0.047670494544454   0.110974512931644   1.0000000
N2   N   0.524058237863440   0.189428482279217   0.111015315844044   1.0000000
N2   N   0.524696654424110   0.330486100459709   0.111033763433246   1.0000000
N2   N   0.526171488480614   0.470374688541455   0.110984117276279   1.0000000
N2   N   0.526171488480614   0.627225493614155   0.110984117276279   1.0000000
N2   N   0.524696654424110   0.765639247639404   0.111033763433246   1.0000000
N2   N   0.667564479513329   0.906125025501809   0.111003505193845   1.0000000
N2   N   0.667116078050090   0.048139540817347   0.111006960148623   1.0000000
N2   N   0.667116078050090   0.190403519351750   0.111006960148623   1.0000000
N2   N   0.667564479513329   0.332868147686522   0.111003505193845   1.0000000
N2   N   0.668141194962854   0.475693464326610   0.111008469425088   1.0000000
N2   N   0.666301745226140   0.618865219451069   0.110996743992971   1.0000000
N2   N   0.668141194962854   0.763876424311246   0.111008469425088   1.0000000
N2   N   0.810349280034129   0.905644714134655   0.110999006043535   1.0000000
N2   N   0.810136078336702   0.048229331034397   0.111014056628244   1.0000000
N2   N   0.810021966701318   0.190724474409661   0.111030182490416   1.0000000
N2   N   0.810136078336702   0.333333729420311   0.111014056628244   1.0000000
N2   N   0.810349280034129   0.476133259573475   0.110999006043535   1.0000000
N2   N   0.809757636826804   0.619099882647648   0.111025185144401   1.0000000
N2   N   0.809757636826804   0.762086447854159   0.111025185144401   1.0000000


