data_1
_audit_creation_method   'vasp2cif'
_cell_length_a    14.93631414619966
_cell_length_b    14.936314146199727
_cell_length_c    13.341276283792837
_cell_angle_alpha    90.0
_cell_angle_beta    90.0
_cell_angle_gamma    119.99999999999984

_symmetry_space_group_name_H-M    'P 1'
loop_
_atom_site_label
_atom_site_type_symbol
_atom_site_fract_x
_atom_site_fract_y
_atom_site_fract_z
_atom_site_occupancy
O2   O   0.440409774998250   0.392299781239369   0.375000000000000   1.0000000
N2   N   0.557329457005306   0.442659046931010   0.375000000000000   1.0000000
N2   N   0.111036418312025   0.055609305187135   0.122381619447727   1.0000000
N2   N   0.611064865630015   0.555656925137048   0.122460187589336   1.0000000
N2   N   0.444383150328771   0.055640093627501   0.123023852877926   1.0000000
N2   N   0.944353842353242   0.555591864928455   0.122837408686928   1.0000000
N2   N   0.777726688025303   0.055599601268915   0.122811815974950   1.0000000
N2   N   0.111025055896119   0.722267571265709   0.626757033872058   1.0000000
N2   N   0.444380229500618   0.722267301155395   0.627297783312100   1.0000000
N2   N   0.277689971660698   0.222281031108120   0.627396129926650   1.0000000
N2   N   0.777735354179467   0.722308509953758   0.627923321681065   1.0000000
N2   N   0.611066527967734   0.222279013216346   0.627151513280302   1.0000000
N2   N   0.944375974612776   0.222247790833387   0.627355970307292   1.0000000
N2   N   0.277700219639543   0.722268386418809   0.123251191552142   1.0000000
N2   N   0.111016350662211   0.222247470597677   0.122336040647235   1.0000000
N2   N   0.444377934102432   0.222313216209036   0.122863486938757   1.0000000
N2   N   0.611072910569978   0.722296674923154   0.122137351456472   1.0000000
N2   N   0.944370054248416   0.722280039760377   0.122569383144636   1.0000000
N2   N   0.777723969920841   0.222252788547718   0.122831828901759   1.0000000
N2   N   0.111038730958369   0.888954122894618   0.627098554793834   1.0000000
N2   N   0.444377296971114   0.888953052653834   0.626831161150166   1.0000000
N2   N   0.277686552950604   0.388910329311661   0.627439326422715   1.0000000
N2   N   0.611046804073403   0.388933250393243   0.627906502393895   1.0000000
N2   N   0.777741330220817   0.888963968478855   0.627755407328626   1.0000000
N2   N   0.944363955679328   0.388915034436643   0.627269045852428   1.0000000
N2   N   0.111027590676075   0.388918328851757   0.122523282488404   1.0000000
N2   N   0.277707761636693   0.888955383216975   0.123303311679467   1.0000000
N2   N   0.611057090732838   0.888950728075088   0.122735240036317   1.0000000
N2   N   0.444355009162924   0.388946369357691   0.123314527227482   1.0000000
N2   N   0.944396485179442   0.888962546557425   0.122239172502653   1.0000000
N2   N   0.777714241937519   0.388913371485996   0.122678005347100   1.0000000
N2   N   0.277696755756754   0.555584865229214   0.627305472858165   1.0000000
N2   N   0.111036418312025   0.055609305187135   0.627618380552241   1.0000000
N2   N   0.611064865630015   0.555656925137048   0.627539812410785   1.0000000
N2   N   0.444383150328758   0.055640093627501   0.626976147122162   1.0000000
N2   N   0.944353842353242   0.555591864928455   0.627162591313095   1.0000000
N2   N   0.111018702120247   0.555586626603883   0.123001082454758   1.0000000
N2   N   0.777726688025303   0.055599601268915   0.627188184025167   1.0000000
N2   N   0.277705925855083   0.055632085087844   0.122755344142549   1.0000000
N2   N   0.444384058611502   0.555596978336174   0.122560728035335   1.0000000
N2   N   0.777702855023401   0.555621573625385   0.122630196427292   1.0000000
N2   N   0.611054522379541   0.055615413569288   0.123052372046669   1.0000000
N2   N   0.444384058611502   0.555596978336174   0.627439271964021   1.0000000
N2   N   0.944385798543200   0.055597357918208   0.122410001707448   1.0000000
N2   N   0.277700219639543   0.722268386418809   0.626748808448439   1.0000000
N2   N   0.111016350662211   0.222247470597677   0.627663959352930   1.0000000
N2   N   0.444377934102432   0.222313216209036   0.627136513061151   1.0000000
N2   N   0.611072910569978   0.722296674923154   0.627862648543736   1.0000000
N2   N   0.944370054248416   0.722280039760784   0.627430616855414   1.0000000
N2   N   0.777723969920841   0.222252788547703   0.627168171097837   1.0000000
N2   N   0.111025055896119   0.722267571265709   0.123242966127676   1.0000000
N2   N   0.444380229500624   0.722267301155395   0.122702216687896   1.0000000
N2   N   0.277689971660698   0.222281031108120   0.122603870073285   1.0000000
N2   N   0.777735354179467   0.722308509953758   0.122076678319342   1.0000000
N2   N   0.611066527967734   0.222279013216346   0.122848486719697   1.0000000
N2   N   0.944375974612776   0.222247790833387   0.122644029692496   1.0000000
N2   N   0.111027590676075   0.388918328851757   0.627476717511221   1.0000000
N2   N   0.277707761636693   0.888955383216975   0.626696688320681   1.0000000
N2   N   0.611057090732838   0.888950728075088   0.627264759963843   1.0000000
N2   N   0.444355009162924   0.388946369357691   0.626685472772895   1.0000000
N2   N   0.944396485179442   0.888962546557425   0.627760827497255   1.0000000
N2   N   0.111038730958369   0.888954122894618   0.122901445206521   1.0000000
N2   N   0.777714241937519   0.388913371485996   0.627321994652573   1.0000000
N2   N   0.444377296971114   0.888953052653834   0.123168838850247   1.0000000
N2   N   0.277686552950604   0.388910329311661   0.122560673577276   1.0000000
N2   N   0.277696755756754   0.555584865229214   0.122694527141802   1.0000000
N2   N   0.611046804073403   0.388933250393243   0.122093497605642   1.0000000
N2   N   0.777741330220817   0.888963968478857   0.122244592671807   1.0000000
N2   N   0.944363955679331   0.388915034436658   0.122730954148029   1.0000000
N2   N   0.111018702120259   0.555586626603883   0.626998917545127   1.0000000
N2   N   0.277705925855076   0.055632085087848   0.627244655857665   1.0000000
N2   N   0.777702855023401   0.555621573625385   0.627369803572528   1.0000000
N2   N   0.611054522379541   0.055615413569288   0.626947627953256   1.0000000
N2   N   0.944385798543200   0.055597357918208   0.627589998292661   1.0000000
N2   N   0.055261215121637   0.110578807575379   0.375000000000000   1.0000000
N2   N   0.553597883482486   0.610205227403389   0.375000000000000   1.0000000
N2   N   0.391268647962020   0.116187438141634   0.375000000000000   1.0000000
N2   N   0.888818115282169   0.610531389311287   0.375000000000000   1.0000000
N2   N   0.722795618429108   0.109922953750165   0.375000000000000   1.0000000
N2   N   0.055668736144546   0.777589272029388   0.875000000000000   1.0000000
N2   N   0.388994291580457   0.777603424439544   0.875000000000000   1.0000000
N2   N   0.222343389790143   0.277604967568739   0.875000000000000   1.0000000
N2   N   0.722320499058301   0.777594078771578   0.875000000000000   1.0000000
N2   N   0.555676424724245   0.277589556198028   0.875000000000000   1.0000000
N2   N   0.888998378148355   0.277592723299683   0.875000000000000   1.0000000
N2   N   0.222908202651452   0.779331602492011   0.375000000000000   1.0000000
N2   N   0.055289123684015   0.277508233609410   0.375000000000000   1.0000000
N2   N   0.388679380168125   0.281206666144497   0.375000000000000   1.0000000
N2   N   0.554898735030078   0.777135795584985   0.375000000000000   1.0000000
N2   N   0.888135048795810   0.776521602005192   0.375000000000000   1.0000000
N2   N   0.724934333887918   0.276737705323450   0.375000000000000   1.0000000
N2   N   0.055668345046475   0.944264714398525   0.875000000000000   1.0000000
N2   N   0.388991610420604   0.944257908404043   0.875000000000000   1.0000000
N2   N   0.222341777064704   0.444275304620526   0.875000000000000   1.0000000
N2   N   0.555666962581071   0.444271537308238   0.875000000000000   1.0000000
N2   N   0.722317578346510   0.944249886151411   0.875000000000000   1.0000000
N2   N   0.889007777168348   0.444265527349926   0.875000000000000   1.0000000
N2   N   0.056051994048866   0.444906134940253   0.375000000000000   1.0000000
N2   N   0.223676760005676   0.946796011088244   0.375000000000000   1.0000000
N2   N   0.555652629386166   0.944061384027346   0.375000000000000   1.0000000
N2   N   0.382908083423933   0.445356306529012   0.375000000000000   1.0000000
N2   N   0.888469739843385   0.943190760499363   0.375000000000000   1.0000000
N2   N   0.724899853443088   0.442442819783773   0.375000000000000   1.0000000
N2   N   0.222332444141769   0.610935689555539   0.875000000000000   1.0000000
N2   N   0.055669297622480   0.110924658550832   0.875000000000000   1.0000000
N2   N   0.555658803792765   0.610943147100980   0.875000000000000   1.0000000
N2   N   0.389003568478984   0.110921770036981   0.875000000000000   1.0000000
N2   N   0.889006273191828   0.610931960571933   0.875000000000000   1.0000000
N2   N   0.056226523552534   0.611995426804409   0.375000000000000   1.0000000
N2   N   0.722319732570423   0.110920424164822   0.875000000000000   1.0000000
N2   N   0.223820121145422   0.113548318467503   0.375000000000000   1.0000000
N2   N   0.387702877526650   0.611055757345365   0.375000000000000   1.0000000
N2   N   0.720092039407129   0.608211545412687   0.375000000000000   1.0000000
N2   N   0.556766942183214   0.110900959679324   0.375000000000000   1.0000000
N2   N   0.388998082652090   0.610939524632429   0.875000000000000   1.0000000
N2   N   0.888929672702197   0.110060922026713   0.375000000000000   1.0000000
N2   N   0.222328318867546   0.777592567432481   0.875000000000000   1.0000000
N2   N   0.055671992803288   0.277599293214027   0.875000000000000   1.0000000
N2   N   0.389015071198996   0.277602061929233   0.875000000000000   1.0000000
N2   N   0.555648251043064   0.777597291986560   0.875000000000000   1.0000000
N2   N   0.888995276096971   0.777602480646425   0.875000000000000   1.0000000
N2   N   0.722330437665948   0.277589366562663   0.875000000000000   1.0000000
N2   N   0.056088534148035   0.778543086046973   0.375000000000000   1.0000000
N2   N   0.388916175942767   0.778634685929060   0.375000000000000   1.0000000
N2   N   0.220461595939060   0.277698327093993   0.375000000000000   1.0000000
N2   N   0.721225806044307   0.776017857698403   0.375000000000000   1.0000000
N2   N   0.559001338402816   0.275432649573839   0.375000000000000   1.0000000
N2   N   0.889998609227385   0.277273961094927   0.375000000000000   1.0000000
N2   N   0.055671745695129   0.444274152307815   0.875000000000000   1.0000000
N2   N   0.222336548514106   0.944265150281279   0.875000000000000   1.0000000
N2   N   0.555645707498774   0.944250845502308   0.875000000000000   1.0000000
N2   N   0.389003208721890   0.444276123063315   0.875000000000000   1.0000000
N2   N   0.888995974966512   0.944258503281375   0.875000000000000   1.0000000
N2   N   0.056038282147481   0.944908130906655   0.375000000000000   1.0000000
N2   N   0.722341915518929   0.444264812181837   0.875000000000000   1.0000000
N2   N   0.389753178597074   0.946592168506537   0.375000000000000   1.0000000
N2   N   0.221093023351558   0.445083085848120   0.375000000000000   1.0000000
N2   N   0.222220085732054   0.612145305058182   0.375000000000000   1.0000000
N2   N   0.721949653017907   0.943085093672679   0.375000000000000   1.0000000
N2   N   0.890790292601373   0.444462650293384   0.375000000000000   1.0000000
N2   N   0.055668127639773   0.610923089778982   0.875000000000000   1.0000000
N2   N   0.222338575807560   0.110933762479365   0.875000000000000   1.0000000
N2   N   0.722329170725968   0.610934592307091   0.875000000000000   1.0000000
N2   N   0.555655814567598   0.110915318069556   0.875000000000000   1.0000000
N2   N   0.888996211973756   0.110918770480248   0.875000000000000   1.0000000
B2   B   0.111891841738733   0.056172726720896   0.375000000000000   1.0000000
B2   B   0.606902777213546   0.550638171320894   0.375000000000000   1.0000000
B2   B   0.446202759722490   0.058862459912660   0.375000000000000   1.0000000
B2   B   0.944227987900268   0.555260428994353   0.375000000000000   1.0000000
B2   B   0.777662700523125   0.054309188219958   0.375000000000000   1.0000000
B2   B   0.111184289074022   0.722018261095766   0.875000000000000   1.0000000
B2   B   0.444554654272829   0.722039239415705   0.875000000000000   1.0000000
B2   B   0.277985571794289   0.222076847079178   0.875000000000000   1.0000000
B2   B   0.777840371723012   0.721946120533681   0.875000000000000   1.0000000
B2   B   0.611226102413963   0.222102958629629   0.875000000000000   1.0000000
B2   B   0.944515462190619   0.222056940116090   0.875000000000000   1.0000000
B2   B   0.277900973131517   0.723410301616516   0.375000000000000   1.0000000
B2   B   0.109626383607446   0.221360240607256   0.375000000000000   1.0000000
B2   B   0.452757131613156   0.231205504109558   0.375000000000000   1.0000000
B2   B   0.610111676795211   0.720798686259054   0.375000000000000   1.0000000
B2   B   0.943864858920468   0.720925211359361   0.375000000000000   1.0000000
B2   B   0.778740468186951   0.221587200188122   0.375000000000000   1.0000000
B2   B   0.111213950929081   0.888672592675467   0.875000000000000   1.0000000
B2   B   0.444555785486116   0.888728367733575   0.875000000000000   1.0000000
B2   B   0.277954621496922   0.388731091805534   0.875000000000000   1.0000000
B2   B   0.611247236221173   0.388722637712433   0.875000000000000   1.0000000
B2   B   0.777845120909695   0.888655312842623   0.875000000000000   1.0000000
B2   B   0.944496405670256   0.388721047737804   0.875000000000000   1.0000000
B2   B   0.110126024761913   0.388810402946303   0.375000000000000   1.0000000
B2   B   0.278807749668854   0.890781319796532   0.375000000000000   1.0000000
B2   B   0.610847431280141   0.888202789297870   0.375000000000000   1.0000000
B2   B   0.944010338176519   0.887512338277695   0.375000000000000   1.0000000
B2   B   0.777755869289292   0.389028876974469   0.375000000000000   1.0000000
B2   B   0.277899362465116   0.555386936091819   0.875000000000000   1.0000000
B2   B   0.111244559950303   0.055364200848157   0.875000000000000   1.0000000
B2   B   0.611224518534692   0.555301361583888   0.875000000000000   1.0000000
B2   B   0.444595642338155   0.055423052349455   0.875000000000000   1.0000000
B2   B   0.944482779489111   0.555340445799061   0.875000000000000   1.0000000
B2   B   0.110988106548813   0.556180896856300   0.375000000000000   1.0000000
B2   B   0.777844192035190   0.055378801187779   0.875000000000000   1.0000000
B2   B   0.280431813238060   0.058730709588643   0.375000000000000   1.0000000
B2   B   0.444416194805471   0.556803383669703   0.375000000000000   1.0000000
B2   B   0.774337260940828   0.549887336719779   0.375000000000000   1.0000000
B2   B   0.611665435261682   0.055376320319466   0.375000000000000   1.0000000
B2   B   0.444600942860654   0.555362711774731   0.875000000000000   1.0000000
B2   B   0.943897743680527   0.054199587344700   0.375000000000000   1.0000000
B2   B   0.277874718346270   0.722047922404153   0.875000000000000   1.0000000
B2   B   0.111241352914776   0.222049848367756   0.875000000000000   1.0000000
B2   B   0.444657497733005   0.222103687197471   0.875000000000000   1.0000000
B2   B   0.611203757435282   0.721979001648699   0.875000000000000   1.0000000
B2   B   0.944498186273315   0.721961564186269   0.875000000000000   1.0000000
B2   B   0.777843053979665   0.222071705662576   0.875000000000000   1.0000000
B2   B   0.111483170075978   0.723010746367219   0.375000000000000   1.0000000
B2   B   0.444085233064907   0.722620467640278   0.375000000000000   1.0000000
B2   B   0.277742657631292   0.224758440285115   0.375000000000000   1.0000000
B2   B   0.775717097887305   0.718362342290172   0.375000000000000   1.0000000
B2   B   0.614369129635797   0.223610719826563   0.375000000000000   1.0000000
B2   B   0.944214456328226   0.221424815844341   0.375000000000000   1.0000000
B2   B   0.111208868992367   0.388718400756664   0.875000000000000   1.0000000
B2   B   0.277897686926196   0.888717478718768   0.875000000000000   1.0000000
B2   B   0.611199559486889   0.888706870469567   0.875000000000000   1.0000000
B2   B   0.444670672444740   0.388735960155974   0.875000000000000   1.0000000
B2   B   0.944519828202912   0.888643487051349   0.875000000000000   1.0000000
B2   B   0.112025568411023   0.889768966076693   0.375000000000000   1.0000000
B2   B   0.777833202447830   0.388726296215933   0.875000000000000   1.0000000
B2   B   0.444743219408298   0.890172429694885   0.375000000000000   1.0000000
B2   B   0.273549724036757   0.387545532599935   0.375000000000000   1.0000000
B2   B   0.276908346967247   0.556281716114354   0.375000000000000   1.0000000
B2   B   0.777008824919541   0.886863451134341   0.375000000000000   1.0000000
B2   B   0.944751046179746   0.388834189147320   0.375000000000000   1.0000000
B2   B   0.111181553753853   0.555366781567234   0.875000000000000   1.0000000
B2   B   0.277952343205457   0.055397619045021   0.875000000000000   1.0000000
B2   B   0.777830981327026   0.555295431674887   0.875000000000000   1.0000000
B2   B   0.611207764187538   0.055415202912540   0.875000000000000   1.0000000
B2   B   0.944526596359518   0.055356355682580   0.875000000000000   1.0000000
B2   B   0.055454624566635   0.111121338209223   0.122411374295345   1.0000000
B2   B   0.555682060089832   0.611040084637585   0.122640644911925   1.0000000
B2   B   0.388997463162060   0.111412978074013   0.123151199302123   1.0000000
B2   B   0.888537786047827   0.610975676441928   0.123200336825169   1.0000000
B2   B   0.722169401913016   0.111274631468887   0.123165688798929   1.0000000
B2   B   0.055343625467634   0.777744762833152   0.626862198907521   1.0000000
B2   B   0.388846336652430   0.777863240527536   0.626834280882770   1.0000000
B2   B   0.222179990470494   0.277799801065942   0.627577919790070   1.0000000
B2   B   0.722205698882691   0.777742571904329   0.627658943742041   1.0000000
B2   B   0.555752178134055   0.278214020458403   0.626065222932833   1.0000000
B2   B   0.888711685457528   0.277845862816208   0.627013715572500   1.0000000
B2   B   0.222083676458148   0.777831929121711   0.123473989082452   1.0000000
B2   B   0.055405296608640   0.277792920143189   0.122545880504916   1.0000000
B2   B   0.389081920114456   0.277981157363273   0.123184370463214   1.0000000
B2   B   0.555580882672761   0.777814291087277   0.122625227587300   1.0000000
B2   B   0.888729098423621   0.777703201168557   0.122535690319455   1.0000000
B2   B   0.722109410198755   0.277988278284907   0.123436016201823   1.0000000
B2   B   0.055446164631942   0.944447927016107   0.627388727148859   1.0000000
B2   B   0.388890734388014   0.944650934223473   0.626633277972751   1.0000000
B2   B   0.222127022258403   0.444453180518944   0.627441067460549   1.0000000
B2   B   0.555756481891932   0.444415219236784   0.625529021043275   1.0000000
B2   B   0.722192791667102   0.944512358799475   0.627257979903250   1.0000000
B2   B   0.888541976180310   0.444410515625396   0.626742315370392   1.0000000
B2   B   0.055322988827369   0.444448474486902   0.122894843862886   1.0000000
B2   B   0.222162510965665   0.944546618293038   0.123152606374496   1.0000000
B2   B   0.555557319405136   0.944611269578460   0.123171501969692   1.0000000
B2   B   0.389021557605469   0.444428961780550   0.122870500389086   1.0000000
B2   B   0.888803795141602   0.944444239997865   0.122409744076519   1.0000000
B2   B   0.721907470345718   0.444364498076851   0.124218181301909   1.0000000
B2   B   0.222072493873690   0.611129372036506   0.626912966995376   1.0000000
B2   B   0.055454624566636   0.111121338209223   0.627588625704583   1.0000000
B2   B   0.555682060089832   0.611040084637585   0.627359355088051   1.0000000
B2   B   0.388997463162060   0.111412978074013   0.626848800698095   1.0000000
B2   B   0.888537786047827   0.610975676441928   0.626799663175228   1.0000000
B2   B   0.055264920009010   0.611069637234424   0.123288831279341   1.0000000
B2   B   0.722169401913016   0.111274631468887   0.626834311200840   1.0000000
B2   B   0.222212568815247   0.111197605031584   0.122605737900765   1.0000000
B2   B   0.388895630321760   0.611116249451099   0.122655986945138   1.0000000
B2   B   0.722105311438763   0.610964734360533   0.123061050191249   1.0000000
B2   B   0.555616715637331   0.111448415145272   0.123360311900448   1.0000000
B2   B   0.388895630321760   0.611116249451099   0.627344013054856   1.0000000
B2   B   0.888790436852610   0.111167482160638   0.122757918084609   1.0000000
B2   B   0.222083676458148   0.777831929121711   0.626526010917273   1.0000000
B2   B   0.055405296608640   0.277792920143189   0.627454119495070   1.0000000
B2   B   0.389081920114456   0.277981157363273   0.626815629536753   1.0000000
B2   B   0.555580882672761   0.777814291087277   0.627374772413058   1.0000000
B2   B   0.888729098423522   0.777703201168557   0.627464309680787   1.0000000
B2   B   0.722109410198755   0.277988278284907   0.626563983798236   1.0000000
B2   B   0.055343625467634   0.777744762833152   0.123137801093005   1.0000000
B2   B   0.388846336652430   0.777863240527536   0.123165719117585   1.0000000
B2   B   0.222179990470494   0.277799801065942   0.122422080209623   1.0000000
B2   B   0.722205698882691   0.777742571904329   0.122341056257832   1.0000000
B2   B   0.555752178134055   0.278214020458403   0.123934777067371   1.0000000
B2   B   0.888711685457528   0.277845862816208   0.122986284427473   1.0000000
B2   B   0.055322988827366   0.444448474486902   0.627105156136706   1.0000000
B2   B   0.222162510965665   0.944546618293038   0.626847393625746   1.0000000
B2   B   0.555557319405136   0.944611269578460   0.626828498030078   1.0000000
B2   B   0.389021557605469   0.444428961780550   0.627129499610981   1.0000000
B2   B   0.888803795141602   0.944444239997865   0.627590255923618   1.0000000
B2   B   0.055446164631950   0.944447927016107   0.122611272851004   1.0000000
B2   B   0.721907470345718   0.444364498076851   0.625781818698535   1.0000000
B2   B   0.388890734388014   0.944650934223473   0.123366722027420   1.0000000
B2   B   0.222127022258403   0.444453180518944   0.122558932538782   1.0000000
B2   B   0.222072493873664   0.611129372036506   0.123087033004440   1.0000000
B2   B   0.555756481891932   0.444415219236784   0.124470978956574   1.0000000
B2   B   0.722192791667102   0.944512358799475   0.122742020096806   1.0000000
B2   B   0.888541976180310   0.444410515625396   0.123257684629768   1.0000000
B2   B   0.055264920009010   0.611069637234424   0.626711168720656   1.0000000
B2   B   0.222212568815247   0.111197605031586   0.627394262099148   1.0000000
B2   B   0.722105311438763   0.610964734360533   0.626938949809126   1.0000000
B2   B   0.555616715637331   0.111448415145272   0.626639688099458   1.0000000
B2   B   0.888790436852610   0.111167482160638   0.627242081915649   1.0000000


