data_1
_audit_creation_method   'vasp2cif'
_cell_length_a    17.52789999999977
_cell_length_b    17.52789999999977
_cell_length_c    15.0
_cell_angle_alpha    90.0
_cell_angle_beta    90.0
_cell_angle_gamma    119.99999999999916

_symmetry_space_group_name_H-M    'P 1'
loop_
_atom_site_label
_atom_site_type_symbol
_atom_site_fract_x
_atom_site_fract_y
_atom_site_fract_z
_atom_site_occupancy
B2   B   0.904047195245160   0.951234701947835   0.110987698971226   1.0000000
B2   B   0.905429640375947   0.094572380820049   0.111077851335712   1.0000000
B2   B   0.905951070034248   0.237483799390520   0.111088872704887   1.0000000
B2   B   0.905828675467041   0.380347637696302   0.111027244790790   1.0000000
B2   B   0.904629862589630   0.523136481211215   0.111032316071291   1.0000000
B2   B   0.902768324668424   0.665512196517370   0.111066051027845   1.0000000
B2   B   0.902427377894204   0.807719024159147   0.111008696487795   1.0000000
B2   B   0.047358041822855   0.952643979373149   0.110960005690029   1.0000000
B2   B   0.048767319248170   0.095954825950838   0.110987698971226   1.0000000
B2   B   0.049114570327610   0.238571174906512   0.111031850740395   1.0000000
B2   B   0.048612220110937   0.381177029867806   0.111019229058753   1.0000000
B2   B   0.047398664643063   0.524019892480192   0.111005017854971   1.0000000
B2   B   0.046386165100802   0.666798900720817   0.111008632795336   1.0000000
B2   B   0.046417242054029   0.809555120685151   0.110968134224394   1.0000000
B2   B   0.190446900510860   0.953584779141966   0.110968134224394   1.0000000
B2   B   0.192282997036857   0.097574643301791   0.111008696487795   1.0000000
B2   B   0.193290958098094   0.240869926314784   0.110847231345772   1.0000000
B2   B   0.192016369873509   0.382462267084295   0.110744507268869   1.0000000
B2   B   0.190022269325057   0.524882448986705   0.110919450281934   1.0000000
B2   B   0.189169111783652   0.667626020829238   0.111078132758973   1.0000000
B2   B   0.189552923155248   0.810449098040756   0.111008695941695   1.0000000
B2   B   0.333203120476180   0.953615856095201   0.111008632795336   1.0000000
B2   B   0.334489824679628   0.097233696527574   0.111066051027845   1.0000000
B2   B   0.337262157855280   0.242767118000691   0.111082786855084   1.0000000
B2   B   0.337859941413900   0.385843100065964   0.110593845994381   1.0000000
B2   B   0.332646973109178   0.527368993871019   0.111089565877362   1.0000000
B2   B   0.331426718264831   0.668575302932166   0.111384584195791   1.0000000
B2   B   0.332376000367759   0.810832909412352   0.111078132758973   1.0000000
B2   B   0.475982128716808   0.952603356552940   0.111005017854971   1.0000000
B2   B   0.476865539985783   0.095372158606366   0.111032316071291   1.0000000
B2   B   0.478237678758745   0.238401638046692   0.111100931636366   1.0000000
B2   B   0.481835565491894   0.381115933474696   0.110799911701552   1.0000000
B2   B   0.472633027325978   0.667355048087820   0.111089565877362   1.0000000
B2   B   0.475119572210295   0.809979751870948   0.110919450281934   1.0000000
B2   B   0.618824991328198   0.951389801085065   0.111019229058753   1.0000000
B2   B   0.619654383499700   0.094173345728954   0.111027244790790   1.0000000
B2   B   0.620567344298332   0.236648838583791   0.111010653902472   1.0000000
B2   B   0.621643216255143   0.378358804940863   0.111029738306898   1.0000000
B2   B   0.618886087721308   0.518166455705106   0.110799911701552   1.0000000
B2   B   0.614158921130041   0.662142079783097   0.110593845994381   1.0000000
B2   B   0.617539754111710   0.807985651322496   0.110744507268869   1.0000000
B2   B   0.761430846289491   0.950887450868392   0.111031850740395   1.0000000
B2   B   0.762518221805484   0.094050951161749   0.111088872704887   1.0000000
B2   B   0.763144214471397   0.236857806724605   0.111010656761126   1.0000000
B2   B   0.763353182612210   0.379434676897672   0.111010653902472   1.0000000
B2   B   0.761600383149310   0.521764342438251   0.111100931636366   1.0000000
B2   B   0.757234903195313   0.662739863341719   0.111082786855084   1.0000000
B2   B   0.759132094881220   0.806711063097910   0.110847231345772   1.0000000
N2   N   0.951351844387016   0.903543046216891   0.110958991409127   1.0000000
N2   N   0.952965749937961   0.047035651980045   0.110992828304785   1.0000000
N2   N   0.953679957109755   0.190090685615409   0.111075209414483   1.0000000
N2   N   0.953463959914338   0.332892576056946   0.111044688353894   1.0000000
N2   N   0.952345105881149   0.475715053303727   0.110990815672573   1.0000000
N2   N   0.950949356963147   0.618420035520606   0.111012956516988   1.0000000
N2   N   0.950596460151757   0.760852043578484   0.111005114009846   1.0000000
N2   N   0.094846961508137   0.905154440409861   0.110935266755123   1.0000000
N2   N   0.096458355701107   0.048649557530990   0.110958991409127   1.0000000
N2   N   0.097533095807035   0.191830104731282   0.110956343935002   1.0000000
N2   N   0.096756611756930   0.333973808999005   0.110965206847494   1.0000000
N2   N   0.095174452469652   0.476520724338658   0.110963702020716   1.0000000
N2   N   0.094090608111758   0.619349604071624   0.111001074428940   1.0000000
N2   N   0.094107799108590   0.762197729175968   0.110962210836295   1.0000000
N2   N   0.237803672742038   0.905893602809411   0.110962210836295   1.0000000
N2   N   0.239149358339522   0.049404941766251   0.111005114009846   1.0000000
N2   N   0.241602310388411   0.194028088074124   0.110989915823255   1.0000000
N2   N   0.241861478905324   0.336815035796461   0.110588405919321   1.0000000
N2   N   0.238074574775321   0.477542587003812   0.110674933340602   1.0000000
N2   N   0.236653838048017   0.620103042460614   0.111097235325112   1.0000000
N2   N   0.237082545277223   0.762918856640785   0.111070021210874   1.0000000
N2   N   0.380651797846373   0.905910793806244   0.111001074428940   1.0000000
N2   N   0.381581366397392   0.049052044954859   0.111012956516988   1.0000000
N2   N   0.383221349159340   0.193237397987067   0.111109899822894   1.0000000
N2   N   0.387591499668707   0.340447874340443   0.110991595495797   1.0000000
N2   N   0.380388311665857   0.481025899823384   0.110262232380141   1.0000000
N2   N   0.378654868317945   0.621346533600053   0.111821825674564   1.0000000
N2   N   0.379898359457390   0.763347563869990   0.111097235325112   1.0000000
N2   N   0.523480677578339   0.904826949448345   0.110963702020716   1.0000000
N2   N   0.524286348613272   0.047656296036856   0.110990815672573   1.0000000
N2   N   0.525294675404250   0.190628730877620   0.111054383925609   1.0000000
N2   N   0.527635847561174   0.333960625054245   0.110961018818258   1.0000000
N2   N   0.518975502093615   0.619613090252141   0.110262232380141   1.0000000
N2   N   0.522458814913187   0.761926827142687   0.110674933340602   1.0000000
N2   N   0.666027592917992   0.903244790161073   0.110965206847494   1.0000000
N2   N   0.667108825860052   0.046537442003666   0.111044688353894   1.0000000
N2   N   0.667865715719271   0.189243324096912   0.110980761002507   1.0000000
N2   N   0.668584232124226   0.331417169792771   0.111003314145475   1.0000000
N2   N   0.666040776862754   0.472365554355821   0.110961018818258   1.0000000
N2   N   0.659553527576555   0.612409902249291   0.110991595495797   1.0000000
N2   N   0.663186366120536   0.758139923012683   0.110588405919321   1.0000000
N2   N   0.808171297186715   0.902468306110962   0.110956343935002   1.0000000
N2   N   0.809910716302592   0.046321444808251   0.111075209414483   1.0000000
N2   N   0.810621806879932   0.189379595038066   0.111060064328339   1.0000000
N2   N   0.810758077821084   0.332135686197725   0.110980761002507   1.0000000
N2   N   0.809372671040379   0.474706726512747   0.111054383925609   1.0000000
N2   N   0.806764003930932   0.616780052758660   0.111109899822894   1.0000000
N2   N   0.805973313843875   0.758399091529596   0.110989915823255   1.0000000
O2   O   0.474122234199576   0.525879786997424   0.115274385728937   1.0000000


