data_1
_audit_creation_method   'vasp2cif'
_cell_length_a    14.93631414619966
_cell_length_b    14.936314146199727
_cell_length_c    13.341276283792837
_cell_angle_alpha    90.0
_cell_angle_beta    90.0
_cell_angle_gamma    119.99999999999984

_symmetry_space_group_name_H-M    'P 1'
loop_
_atom_site_label
_atom_site_type_symbol
_atom_site_fract_x
_atom_site_fract_y
_atom_site_fract_z
_atom_site_occupancy
N2   N   0.432959614088272   0.383146473710800   0.375000000000000   1.0000000
N2   N   0.111115015590041   0.055548701338792   0.125298984672847   1.0000000
N2   N   0.611138736556201   0.555552274998155   0.126612346974148   1.0000000
N2   N   0.444416047405427   0.055560398061057   0.125418520057552   1.0000000
N2   N   0.944481987243094   0.555578717761845   0.125230856076036   1.0000000
N2   N   0.777748903022408   0.055541118177872   0.125182587696921   1.0000000
N2   N   0.111128150581789   0.722230741957558   0.624818683884590   1.0000000
N2   N   0.444416047405427   0.722188982677706   0.624581479942448   1.0000000
N2   N   0.277798265477184   0.222235401775553   0.624000269135430   1.0000000
N2   N   0.777804383458828   0.722217709443085   0.624533676364815   1.0000000
N2   N   0.611098203518803   0.222244512999979   0.624403864141346   1.0000000
N2   N   0.944441544720238   0.222228500032649   0.624839658361648   1.0000000
N2   N   0.277766711386299   0.722215534681712   0.125208040618011   1.0000000
N2   N   0.111123944690960   0.222228639012144   0.125391872480997   1.0000000
N2   N   0.444444387379473   0.222261931114397   0.126196918062171   1.0000000
N2   N   0.611098203518803   0.722187023852153   0.125596135858653   1.0000000
N2   N   0.944481987243094   0.722236602814584   0.125230856076036   1.0000000
N2   N   0.777765003606225   0.222232818090357   0.125202371273385   1.0000000
N2   N   0.111123208612636   0.888888920042374   0.624787974784066   1.0000000
N2   N   0.444407619419122   0.888870476376226   0.624809207741740   1.0000000
N2   N   0.277798265477184   0.388896197034960   0.624000269135430   1.0000000
N2   N   0.611138736556201   0.388919794891376   0.623387653025852   1.0000000
N2   N   0.777765003606225   0.888865518849196   0.624797628726615   1.0000000
N2   N   0.944459513794862   0.388907041630838   0.624846134209129   1.0000000
N2   N   0.111115015590041   0.388899647584578   0.125298984672847   1.0000000
N2   N   0.277766711386299   0.888884510037915   0.125208040618011   1.0000000
N2   N   0.611068717853994   0.888855184465768   0.125219494207931   1.0000000
N2   N   0.444429498865190   0.388881416099260   0.126034748446058   1.0000000
N2   N   0.944459513794862   0.888885805497352   0.125153865790871   1.0000000
N2   N   0.777804383458828   0.388920007349072   0.125466323635185   1.0000000
N2   N   0.277778190326834   0.555550749446776   0.624477191589945   1.0000000
N2   N   0.111115015590041   0.055548701338792   0.624701015327154   1.0000000
N2   N   0.611138736556201   0.555552274998155   0.623387653025852   1.0000000
N2   N   0.444416047405427   0.055560398061057   0.624581479942448   1.0000000
N2   N   0.944481987243094   0.555578717761845   0.624769143923964   1.0000000
N2   N   0.111123208612636   0.555567621903591   0.125212025215934   1.0000000
N2   N   0.777748903022408   0.055541118177872   0.624817412303079   1.0000000
N2   N   0.277778190326834   0.055560774213393   0.125522808410055   1.0000000
N2   N   0.444444387379473   0.555515789598412   0.126196918062171   1.0000000
N2   N   0.777824092451633   0.555578712892484   0.125731046334459   1.0000000
N2   N   0.611068717853994   0.055546866721555   0.125219494207931   1.0000000
N2   N   0.444444387379473   0.555515789598412   0.623803081937830   1.0000000
N2   N   0.944441544720238   0.055546378020926   0.125160341638351   1.0000000
N2   N   0.277766711386299   0.722215534681712   0.624791959381990   1.0000000
N2   N   0.111123944690960   0.222228639012144   0.624608127519002   1.0000000
N2   N   0.444444387379473   0.222261931114397   0.623803081937830   1.0000000
N2   N   0.611098203518803   0.722187023852153   0.624403864141346   1.0000000
N2   N   0.944481987243094   0.722236602814584   0.624769143923964   1.0000000
N2   N   0.777765003606225   0.222232818090357   0.624797628726615   1.0000000
N2   N   0.111128150581789   0.722230741957558   0.125181316115410   1.0000000
N2   N   0.444416047405427   0.722188982677706   0.125418520057552   1.0000000
N2   N   0.277798265477184   0.222235401775553   0.125999730864571   1.0000000
N2   N   0.777804383458828   0.722217709443085   0.125466323635185   1.0000000
N2   N   0.611098203518803   0.222244512999979   0.125596135858653   1.0000000
N2   N   0.944441544720238   0.222228500032649   0.125160341638351   1.0000000
N2   N   0.111115015590041   0.388899647584578   0.624701015327154   1.0000000
N2   N   0.277766711386299   0.888884510037915   0.624791959381990   1.0000000
N2   N   0.611068717853994   0.888855184465768   0.624780505792069   1.0000000
N2   N   0.444429498865190   0.388881416099260   0.623965251553941   1.0000000
N2   N   0.944459513794862   0.888885805497352   0.624846134209129   1.0000000
N2   N   0.111123208612636   0.888888920042374   0.125212025215934   1.0000000
N2   N   0.777804383458828   0.388920007349072   0.624533676364815   1.0000000
N2   N   0.444407619419122   0.888870476376226   0.125190792258261   1.0000000
N2   N   0.277798265477184   0.388896197034960   0.125999730864571   1.0000000
N2   N   0.277778190326834   0.555550749446776   0.125522808410055   1.0000000
N2   N   0.611138736556201   0.388919794891376   0.126612346974148   1.0000000
N2   N   0.777765003606225   0.888865518849196   0.125202371273385   1.0000000
N2   N   0.944459513794862   0.388907041630838   0.125153865790871   1.0000000
N2   N   0.111123208612636   0.555567621903591   0.624787974784066   1.0000000
N2   N   0.277778190326834   0.055560774213393   0.624477191589945   1.0000000
N2   N   0.777824092451633   0.555578712892484   0.624268953665541   1.0000000
N2   N   0.611068717853994   0.055546866721555   0.624780505792069   1.0000000
N2   N   0.944441544720238   0.055546378020926   0.624839658361648   1.0000000
N2   N   0.052577181525954   0.109335531893430   0.375000000000000   1.0000000
N2   N   0.555539335450854   0.603783627292823   0.375000000000000   1.0000000
N2   N   0.389947997759653   0.116751416531263   0.375000000000000   1.0000000
N2   N   0.892955277964827   0.613144305649086   0.375000000000000   1.0000000
N2   N   0.720939890480937   0.111135341680598   0.375000000000000   1.0000000
N2   N   0.055549306639335   0.777778539140112   0.875000000000000   1.0000000
N2   N   0.388896862005624   0.777780127048783   0.875000000000000   1.0000000
N2   N   0.222219958712823   0.277776646023080   0.875000000000000   1.0000000
N2   N   0.722219365495756   0.777780204144517   0.875000000000000   1.0000000
N2   N   0.555554160289266   0.277777970456179   0.875000000000000   1.0000000
N2   N   0.888887410784185   0.277774051932578   0.875000000000000   1.0000000
N2   N   0.224481536242076   0.778907434787706   0.375000000000000   1.0000000
N2   N   0.052577181525954   0.276574982965859   0.375000000000000   1.0000000
N2   N   0.384352531578346   0.283418202577525   0.375000000000000   1.0000000
N2   N   0.555478550981260   0.774774542885766   0.375000000000000   1.0000000
N2   N   0.890628904572026   0.778483405987106   0.375000000000000   1.0000000
N2   N   0.721802039289889   0.279261017798940   0.375000000000000   1.0000000
N2   N   0.055551525794263   0.944448299775280   0.875000000000000   1.0000000
N2   N   0.388896862005624   0.944450068290176   0.875000000000000   1.0000000
N2   N   0.222220647457848   0.444438256131449   0.875000000000000   1.0000000
N2   N   0.555551888891523   0.444442611112426   0.875000000000000   1.0000000
N2   N   0.722222176126988   0.944446310816593   0.875000000000000   1.0000000
N2   N   0.888883013971621   0.444436363533388   0.875000000000000   1.0000000
N2   N   0.055719050966655   0.444315400838939   0.375000000000000   1.0000000
N2   N   0.224013893364274   0.946757121609821   0.375000000000000   1.0000000
N2   N   0.555450448396027   0.944391890864678   0.375000000000000   1.0000000
N2   N   0.384352531578346   0.434267662334156   0.375000000000000   1.0000000
N2   N   0.887437376117643   0.943140765146976   0.375000000000000   1.0000000
N2   N   0.726385612420446   0.447871823002331   0.375000000000000   1.0000000
N2   N   0.222223086474547   0.611105252502922   0.875000000000000   1.0000000
N2   N   0.055550796775048   0.111111121466394   0.875000000000000   1.0000000
N2   N   0.555554160289266   0.611109523166422   0.875000000000000   1.0000000
N2   N   0.388893910672265   0.111118517236125   0.875000000000000   1.0000000
N2   N   0.888878356529809   0.611105844931576   0.875000000000000   1.0000000
N2   N   0.058179409029555   0.612080607711125   0.375000000000000   1.0000000
N2   N   0.722222176126988   0.111109198643730   0.875000000000000   1.0000000
N2   N   0.220933944187838   0.111607044137393   0.375000000000000   1.0000000
N2   N   0.389947997759653   0.606529914561733   0.375000000000000   1.0000000
N2   N   0.726385612420446   0.611847122751451   0.375000000000000   1.0000000
N2   N   0.555478550981260   0.114037341428831   0.375000000000000   1.0000000
N2   N   0.388893910672265   0.611108726769483   0.875000000000000   1.0000000
N2   N   0.886646425008288   0.109989879170816   0.375000000000000   1.0000000
N2   N   0.222224769964991   0.777779051649164   0.875000000000000   1.0000000
N2   N   0.055550796775048   0.277773008641989   0.875000000000000   1.0000000
N2   N   0.388889475447956   0.277778776946617   0.875000000000000   1.0000000
N2   N   0.555558268965482   0.777780104379151   0.875000000000000   1.0000000
N2   N   0.888883013971621   0.777779983771568   0.875000000000000   1.0000000
N2   N   0.722219365495756   0.277772494684575   0.875000000000000   1.0000000
N2   N   0.058179409029555   0.779432134651765   0.375000000000000   1.0000000
N2   N   0.390181894815816   0.776868255172419   0.375000000000000   1.0000000
N2   N   0.216414406603897   0.274873869968616   0.375000000000000   1.0000000
N2   N   0.721802039289889   0.775874354824284   0.375000000000000   1.0000000
N2   N   0.555539335450854   0.285089041491366   0.375000000000000   1.0000000
N2   N   0.887437376117643   0.277629944304004   0.375000000000000   1.0000000
N2   N   0.055551525794263   0.444436559352310   0.875000000000000   1.0000000
N2   N   0.222223086474547   0.944451167304960   0.875000000000000   1.0000000
N2   N   0.555559821929850   0.944446577631588   0.875000000000000   1.0000000
N2   N   0.388889475447956   0.444444031834674   0.875000000000000   1.0000000
N2   N   0.888887410784185   0.944446692184943   0.875000000000000   1.0000000
N2   N   0.055719050966655   0.944736983461046   0.375000000000000   1.0000000
N2   N   0.722212502282463   0.444437692983869   0.875000000000000   1.0000000
N2   N   0.390181894815816   0.946646972976734   0.375000000000000   1.0000000
N2   N   0.220933944187838   0.442660233383781   0.375000000000000   1.0000000
N2   N   0.224013893364274   0.610590105087788   0.375000000000000   1.0000000
N2   N   0.720939890480937   0.943137882133674   0.375000000000000   1.0000000
N2   N   0.890628904572026   0.445478831918255   0.375000000000000   1.0000000
N2   N   0.055549306639335   0.611104100832560   0.875000000000000   1.0000000
N2   N   0.222220647457848   0.111115724659734   0.875000000000000   1.0000000
N2   N   0.722212502282463   0.611108142631931   0.875000000000000   1.0000000
N2   N   0.555558268965482   0.111111497919666   0.875000000000000   1.0000000
N2   N   0.888887513996234   0.111110423664789   0.875000000000000   1.0000000
B2   B   0.108911755587368   0.054805760442781   0.375000000000000   1.0000000
B2   B   0.620124139095753   0.560605333499232   0.375000000000000   1.0000000
B2   B   0.444823888461483   0.058045175012271   0.375000000000000   1.0000000
B2   B   0.947790994059077   0.556727971019882   0.375000000000000   1.0000000
B2   B   0.775829520261453   0.054581426797394   0.375000000000000   1.0000000
B2   B   0.111112838793816   0.722223086063572   0.875000000000000   1.0000000
B2   B   0.444455581639742   0.722272910205893   0.875000000000000   1.0000000
B2   B   0.277718100385509   0.222171557003363   0.875000000000000   1.0000000
B2   B   0.777814824147474   0.722279883753005   0.875000000000000   1.0000000
B2   B   0.611142525391892   0.222179553852561   0.875000000000000   1.0000000
B2   B   0.944410864363115   0.222198166044561   0.875000000000000   1.0000000
B2   B   0.279212283510661   0.722288863843376   0.375000000000000   1.0000000
B2   B   0.104723487708900   0.219028410521114   0.375000000000000   1.0000000
B2   B   0.445187776083740   0.226715242416163   0.375000000000000   1.0000000
B2   B   0.611462763780534   0.719997072597920   0.375000000000000   1.0000000
B2   B   0.947790994059077   0.724396356372532   0.375000000000000   1.0000000
B2   B   0.776680664517722   0.222062368750013   0.375000000000000   1.0000000
B2   B   0.111096324564646   0.888876431264407   0.875000000000000   1.0000000
B2   B   0.444459313408648   0.888896323370988   0.875000000000000   1.0000000
B2   B   0.277718100385509   0.388879876715475   0.875000000000000   1.0000000
B2   B   0.611149144746658   0.388875983007355   0.875000000000000   1.0000000
B2   B   0.777794026464620   0.888932319578300   0.875000000000000   1.0000000
B2   B   0.944441189975745   0.388869792921635   0.875000000000000   1.0000000
B2   B   0.108911755587368   0.387439328477916   0.375000000000000   1.0000000
B2   B   0.279212283510661   0.890256753000613   0.375000000000000   1.0000000
B2   B   0.610366023534827   0.887611075286063   0.375000000000000   1.0000000
B2   B   0.944763347887950   0.889427371724693   0.375000000000000   1.0000000
B2   B   0.780832604295024   0.389659445445418   0.375000000000000   1.0000000
B2   B   0.277749461823955   0.555575515220952   0.875000000000000   1.0000000
B2   B   0.111058103136826   0.055520910333056   0.875000000000000   1.0000000
B2   B   0.611149144746658   0.555606495072631   0.875000000000000   1.0000000
B2   B   0.444455581639742   0.055516004767186   0.875000000000000   1.0000000
B2   B   0.944464311198777   0.555554572047898   0.875000000000000   1.0000000
B2   B   0.112598524780830   0.555577236981741   0.375000000000000   1.0000000
B2   B   0.777780230488688   0.055556781911012   0.875000000000000   1.0000000
B2   B   0.277852590180119   0.057193072072918   0.375000000000000   1.0000000
B2   B   0.445187776083740   0.551805867000913   0.375000000000000   1.0000000
B2   B   0.784366117393903   0.558849725363620   0.375000000000000   1.0000000
B2   B   0.610366023534827   0.056088281582092   0.375000000000000   1.0000000
B2   B   0.444444289759846   0.555605880506715   0.875000000000000   1.0000000
B2   B   0.941438336791599   0.053866866266003   0.375000000000000   1.0000000
B2   B   0.277776705745909   0.722236188894522   0.875000000000000   1.0000000
B2   B   0.111035361435405   0.222184347384367   0.875000000000000   1.0000000
B2   B   0.444444289759846   0.222171742586466   0.875000000000000   1.0000000
B2   B   0.611142525391892   0.722296304872659   0.875000000000000   1.0000000
B2   B   0.944464311198777   0.722243072484214   0.875000000000000   1.0000000
B2   B   0.777794026464620   0.222195040219648   0.875000000000000   1.0000000
B2   B   0.113536497739736   0.723434915536533   0.375000000000000   1.0000000
B2   B   0.444823888461483   0.720112046782548   0.375000000000000   1.0000000
B2   B   0.269924789495396   0.219967482863995   0.375000000000000   1.0000000
B2   B   0.780832604295024   0.724506492182936   0.375000000000000   1.0000000
B2   B   0.611462763780534   0.224799024515942   0.375000000000000   1.0000000
B2   B   0.941438336791599   0.220904803858932   0.375000000000000   1.0000000
B2   B   0.111058103136826   0.388870526137098   0.875000000000000   1.0000000
B2   B   0.277776705745909   0.888873850184716   0.875000000000000   1.0000000
B2   B   0.611133226423882   0.888926830756820   0.875000000000000   1.0000000
B2   B   0.444433595285066   0.388883464309197   0.875000000000000   1.0000000
B2   B   0.944441189975745   0.888904730387438   0.875000000000000   1.0000000
B2   B   0.112598524780830   0.890354621132419   0.375000000000000   1.0000000
B2   B   0.777814824147474   0.388868273727798   0.875000000000000   1.0000000
B2   B   0.444820668769752   0.889077001051541   0.375000000000000   1.0000000
B2   B   0.269924789495396   0.383290639964730   0.375000000000000   1.0000000
B2   B   0.277852590180119   0.553992851440537   0.375000000000000   1.0000000
B2   B   0.620124139095753   0.392852138929850   0.375000000000000   1.0000000
B2   B   0.776680664517722   0.887951629101037   0.375000000000000   1.0000000
B2   B   0.944763347887950   0.388669309496587   0.375000000000000   1.0000000
B2   B   0.111096324564646   0.555553226633567   0.875000000000000   1.0000000
B2   B   0.277749461823955   0.055507279936338   0.875000000000000   1.0000000
B2   B   0.777823561415841   0.555578447374589   0.875000000000000   1.0000000
B2   B   0.611133226423882   0.055539729000392   0.875000000000000   1.0000000
B2   B   0.944410864363115   0.055546031651890   0.875000000000000   1.0000000
B2   B   0.055430562882727   0.110993034555419   0.124728561641393   1.0000000
B2   B   0.555643866141782   0.611298143501276   0.125140644370811   1.0000000
B2   B   0.388791752499394   0.110872897036028   0.124943922756454   1.0000000
B2   B   0.889129342873616   0.611231338103479   0.124765699513163   1.0000000
B2   B   0.722211581357373   0.111076722721589   0.124763953874331   1.0000000
B2   B   0.055633458014292   0.777784205535301   0.625236651254966   1.0000000
B2   B   0.388811125262019   0.777816192459681   0.625206131763093   1.0000000
B2   B   0.222004887858317   0.277669110595826   0.625196719466002   1.0000000
B2   B   0.722330096765425   0.777906382337763   0.625203235286162   1.0000000
B2   B   0.555643866141782   0.277679055973843   0.624859355629190   1.0000000
B2   B   0.888901556620479   0.277790935184492   0.625277614338289   1.0000000
B2   B   0.222193062013621   0.777763197673479   0.124777401943916   1.0000000
B2   B   0.055430562882727   0.277770861660644   0.124728561641393   1.0000000
B2   B   0.388820986194726   0.277671588821392   0.124662713104088   1.0000000
B2   B   0.555536044727977   0.777881490931833   0.124820497175152   1.0000000
B2   B   0.889043033316078   0.777860115100595   0.124731315746045   1.0000000
B2   B   0.722330096765425   0.277757047760998   0.124796764713838   1.0000000
B2   B   0.055528214528103   0.944352776369694   0.625257580654753   1.0000000
B2   B   0.388811125262019   0.944328266135674   0.625206131763093   1.0000000
B2   B   0.222054585527502   0.444517234892409   0.625123323924560   1.0000000
B2   B   0.555634407315089   0.444483870324209   0.624588157291770   1.0000000
B2   B   0.722211581357373   0.944468191969119   0.625236046125669   1.0000000
B2   B   0.889043033316078   0.444516251548819   0.625268684253955   1.0000000
B2   B   0.055528214528103   0.444508771491739   0.124742419345247   1.0000000
B2   B   0.222148231588856   0.944281768669982   0.124807330239959   1.0000000
B2   B   0.555500517189617   0.944416925261473   0.124765236129802   1.0000000
B2   B   0.388820986194726   0.444482730706671   0.124662713104088   1.0000000
B2   B   0.888901556620479   0.944443954769323   0.124722385661710   1.0000000
B2   B   0.722481703447192   0.444533294893047   0.125047646530191   1.0000000
B2   B   0.222148231588856   0.611199796252210   0.625192669760042   1.0000000
B2   B   0.055430562882727   0.110993034555419   0.625271438358607   1.0000000
B2   B   0.555643866141782   0.611298143501276   0.624859355629190   1.0000000
B2   B   0.388791752499394   0.110872897036028   0.625056077243546   1.0000000
B2   B   0.889129342873616   0.611231338103479   0.625234300486838   1.0000000
B2   B   0.055633458014292   0.611182585812325   0.124763348745033   1.0000000
B2   B   0.722211581357373   0.111076722721589   0.625236046125669   1.0000000
B2   B   0.222054585527502   0.110870683968429   0.124876676075440   1.0000000
B2   B   0.388791752499394   0.611252188796709   0.124943922756454   1.0000000
B2   B   0.722481703447192   0.611281741887481   0.125047646530191   1.0000000
B2   B   0.555536044727977   0.110987887129480   0.124820497175152   1.0000000
B2   B   0.388791752499394   0.611252188796709   0.625056077243546   1.0000000
B2   B   0.888839475263336   0.111086404298340   0.124747943111589   1.0000000
B2   B   0.222193062013621   0.777763197673479   0.625222598056085   1.0000000
B2   B   0.055430562882727   0.277770861660644   0.625271438358607   1.0000000
B2   B   0.388820986194726   0.277671588821392   0.625337286895911   1.0000000
B2   B   0.555536044727977   0.777881490931833   0.625179502824849   1.0000000
B2   B   0.889043033316078   0.777860115100595   0.625268684253955   1.0000000
B2   B   0.722330096765425   0.277757047760998   0.625203235286162   1.0000000
B2   B   0.055633458014292   0.777784205535301   0.124763348745033   1.0000000
B2   B   0.388811125262019   0.777816192459681   0.124793868236906   1.0000000
B2   B   0.222004887858317   0.277669110595826   0.124803280533997   1.0000000
B2   B   0.722330096765425   0.777906382337763   0.124796764713838   1.0000000
B2   B   0.555643866141782   0.277679055973843   0.125140644370811   1.0000000
B2   B   0.888901556620479   0.277790935184492   0.124722385661710   1.0000000
B2   B   0.055528214528103   0.444508771491739   0.625257580654753   1.0000000
B2   B   0.222148231588856   0.944281768669982   0.625192669760042   1.0000000
B2   B   0.555500517189617   0.944416925261473   0.625234763870198   1.0000000
B2   B   0.388820986194726   0.444482730706671   0.625337286895911   1.0000000
B2   B   0.888901556620479   0.944443954769323   0.625277614338289   1.0000000
B2   B   0.055528214528103   0.944352776369694   0.124742419345247   1.0000000
B2   B   0.722481703447192   0.444533294893047   0.624952353469809   1.0000000
B2   B   0.388811125262019   0.944328266135674   0.124793868236906   1.0000000
B2   B   0.222054585527502   0.444517234892409   0.124876676075440   1.0000000
B2   B   0.222148231588856   0.611199796252210   0.124807330239959   1.0000000
B2   B   0.555634407315089   0.444483870324209   0.125411842708230   1.0000000
B2   B   0.722211581357373   0.944468191969119   0.124763953874331   1.0000000
B2   B   0.889043033316078   0.444516251548819   0.124731315746045   1.0000000
B2   B   0.055633458014292   0.611182585812325   0.625236651254966   1.0000000
B2   B   0.222054585527502   0.110870683968429   0.625123323924560   1.0000000
B2   B   0.722481703447192   0.611281741887481   0.624952353469809   1.0000000
B2   B   0.555536044727977   0.110987887129480   0.625179502824849   1.0000000
B2   B   0.888839475263336   0.111086404298340   0.625252056888411   1.0000000


