data_1
_audit_creation_method   'vasp2cif'
_cell_length_a    17.52789999999977
_cell_length_b    17.52789999999977
_cell_length_c    15.0
_cell_angle_alpha    90.0
_cell_angle_beta    90.0
_cell_angle_gamma    119.99999999999916

_symmetry_space_group_name_H-M    'P 1'
loop_
_atom_site_label
_atom_site_type_symbol
_atom_site_fract_x
_atom_site_fract_y
_atom_site_fract_z
_atom_site_occupancy
B2   B   0.905127538250701   0.952557745891680   0.107205269006158   1.0000000
B2   B   0.904800921158785   0.095200978056919   0.106089614760399   1.0000000
B2   B   0.904720664909912   0.238018999672206   0.105838897844123   1.0000000
B2   B   0.904745515599254   0.380883359186125   0.106079909921793   1.0000000
B2   B   0.904868521139924   0.523753684710176   0.106832128558387   1.0000000
B2   B   0.905009055142033   0.666665071568388   0.108220716283539   1.0000000
B2   B   0.905032352140075   0.809564080052320   0.108620345008677   1.0000000
B2   B   0.047716606842834   0.952283920563317   0.107085422567948   1.0000000
B2   B   0.047444500425116   0.094873992020413   0.107207699981245   1.0000000
B2   B   0.047315676488635   0.237745593879927   0.107851327388558   1.0000000
B2   B   0.047352038493943   0.380833662250770   0.107780190643019   1.0000000
B2   B   0.047408815821731   0.523817123292998   0.107041096107213   1.0000000
B2   B   0.047659030057993   0.666671578241890   0.106882875419261   1.0000000
B2   B   0.047726864912242   0.809501137295294   0.107135165149347   1.0000000
B2   B   0.190498288969804   0.952272969030708   0.107136313819512   1.0000000
B2   B   0.190436716851250   0.094968445898175   0.108621755417363   1.0000000
B2   B   0.189541342011868   0.237032229420639   0.111616882311856   1.0000000
B2   B   0.189637618931199   0.380282726572805   0.113743537746984   1.0000000
B2   B   0.189750714244532   0.523863545493500   0.110962472240540   1.0000000
B2   B   0.190366099810815   0.666697200286570   0.108330425664244   1.0000000
B2   B   0.190487277014576   0.809514885131172   0.106999895402066   1.0000000
B2   B   0.333329683459758   0.952342077806066   0.106886875556520   1.0000000
B2   B   0.333334797842184   0.094991729196818   0.108223058487985   1.0000000
B2   B   0.333249450249156   0.237478737131214   0.113190572343023   1.0000000
B2   B   0.330959230203692   0.377810630170734   0.121578989687310   1.0000000
B2   B   0.331062308899527   0.524018068923865   0.123913677789080   1.0000000
B2   B   0.333169059128338   0.666832816358401   0.112981964998702   1.0000000
B2   B   0.333305611451301   0.809636299451058   0.108332931650603   1.0000000
B2   B   0.476184896370670   0.952594010408618   0.107045444270862   1.0000000
B2   B   0.476248312499070   0.095134065276136   0.106837635987254   1.0000000
B2   B   0.476321388785740   0.237612773353626   0.109772974602153   1.0000000
B2   B   0.476250654341359   0.379417316268736   0.118367678678354   1.0000000
B2   B   0.475983939980850   0.668940630491056   0.123914282963451   1.0000000
B2   B   0.476139050988079   0.810251425492780   0.110964766670501   1.0000000
B2   B   0.619168788426048   0.952650022366993   0.107780579069413   1.0000000
B2   B   0.619119413247863   0.095257046799260   0.106085625859041   1.0000000
B2   B   0.619211830471179   0.237914537484654   0.107006033726376   1.0000000
B2   B   0.619421577272733   0.380581521057798   0.111247450781295   1.0000000
B2   B   0.620584301283287   0.523750247021266   0.118365118445283   1.0000000
B2   B   0.622190525024843   0.669042137891469   0.121574603073131   1.0000000
B2   B   0.619720253122413   0.810364669015472   0.113741685254183   1.0000000
B2   B   0.762255964872681   0.952685237717328   0.107851305000578   1.0000000
B2   B   0.761982845327724   0.095281536826204   0.105841054347472   1.0000000
B2   B   0.761990897963324   0.238010981426651   0.105754059569411   1.0000000
B2   B   0.762088228665748   0.380790986832296   0.107003581836990   1.0000000
B2   B   0.762388537330828   0.523680360940918   0.109771317433990   1.0000000
B2   B   0.762520876608268   0.666751262745627   0.113191159560999   1.0000000
B2   B   0.762969129373050   0.810460726080013   0.111616210364202   1.0000000
N2   N   0.952557257134895   0.904776685554308   0.107354582454370   1.0000000
N2   N   0.952417703926717   0.047585374096069   0.106395827562155   1.0000000
N2   N   0.952261056925945   0.190353978218634   0.106126195990537   1.0000000
N2   N   0.952278400088816   0.333222085427668   0.106162502729257   1.0000000
N2   N   0.952321022019431   0.476096734303788   0.106373055949788   1.0000000
N2   N   0.952468616659516   0.618990236668286   0.107055063847822   1.0000000
N2   N   0.952540762899295   0.761875069081499   0.107866267602400   1.0000000
N2   N   0.095306863521885   0.904693429614723   0.107017682898989   1.0000000
N2   N   0.095224627986925   0.047443541737945   0.107360587832921   1.0000000
N2   N   0.094676031744156   0.189889225675937   0.108358867737916   1.0000000
N2   N   0.094793778068608   0.333013877143440   0.109334239682131   1.0000000
N2   N   0.094814243394059   0.476074442315919   0.108069597161382   1.0000000
N2   N   0.095140357829704   0.619015074258449   0.107115134576478   1.0000000
N2   N   0.095265359102335   0.761881175930717   0.106872799750757   1.0000000
N2   N   0.238119375259807   0.904735451870734   0.106876417094472   1.0000000
N2   N   0.238124271645750   0.047459054508404   0.107866337100706   1.0000000
N2   N   0.237944846077870   0.190090929473769   0.111118890791334   1.0000000
N2   N   0.236411602691135   0.331779640414591   0.115801100758448   1.0000000
N2   N   0.236913349038599   0.475911348771840   0.115109639941073   1.0000000
N2   N   0.237791827743500   0.619036591890194   0.110570870561543   1.0000000
N2   N   0.238048880279056   0.761953997530018   0.107650373364404   1.0000000
N2   N   0.380987489697525   0.904862517837943   0.107116495920830   1.0000000
N2   N   0.381010741945320   0.047532639244203   0.107060469096331   1.0000000
N2   N   0.381030099945795   0.190186907795076   0.110123452794961   1.0000000
N2   N   0.380982690572905   0.332689726330569   0.118860819037830   1.0000000
N2   N   0.375056840072027   0.472572854556489   0.130806933082983   1.0000000
N2   N   0.380558250670930   0.619444367080682   0.120033226973769   1.0000000
N2   N   0.380965984434901   0.762210503618626   0.110574094076637   1.0000000
N2   N   0.523927769870475   0.905188428128044   0.108076283477110   1.0000000
N2   N   0.523904689335907   0.047681253210032   0.106381208351394   1.0000000
N2   N   0.523967255157679   0.190251245686796   0.107381330438418   1.0000000
N2   N   0.524109121215203   0.332735167638975   0.112369216024556   1.0000000
N2   N   0.525135595396423   0.474864993752730   0.126999309763539   1.0000000
N2   N   0.527428321640691   0.624945979434649   0.130812975575178   1.0000000
N2   N   0.524091734856965   0.763088488416353   0.115107537501642   1.0000000
N2   N   0.666988515551505   0.905208306598289   0.109328429119184   1.0000000
N2   N   0.666781189272438   0.047724841571202   0.106165691093859   1.0000000
N2   N   0.666811068560226   0.190389501318953   0.105972356628338   1.0000000
N2   N   0.666916238768952   0.333084821556714   0.107996194615478   1.0000000
N2   N   0.667264825939183   0.475891047674140   0.112369795976699   1.0000000
N2   N   0.667310532982599   0.619019248637842   0.118854016542964   1.0000000
N2   N   0.668221828893306   0.763589326590853   0.115797910770029   1.0000000
N2   N   0.810114328861286   0.905327454060002   0.108357745560294   1.0000000
N2   N   0.809647372774263   0.047741011314439   0.106129758802868   1.0000000
N2   N   0.809572572580430   0.190429148090328   0.105479278426672   1.0000000
N2   N   0.809613714380286   0.333191585685750   0.105970586846158   1.0000000
N2   N   0.809751183166817   0.476034377162549   0.107375184431720   1.0000000
N2   N   0.809811434608304   0.618970194096045   0.110121320798401   1.0000000
N2   N   0.809910780636862   0.762057148736975   0.111122035117818   1.0000000
P2   P   0.473993748059776   0.526008052923757   0.174637728514060   1.0000000


