data_1
_audit_creation_method   'vasp2cif'
_cell_length_a    17.52789999999977
_cell_length_b    17.52789999999977
_cell_length_c    15.0
_cell_angle_alpha    90.0
_cell_angle_beta    90.0
_cell_angle_gamma    119.99999999999916

_symmetry_space_group_name_H-M    'P 1'
loop_
_atom_site_label
_atom_site_type_symbol
_atom_site_fract_x
_atom_site_fract_y
_atom_site_fract_z
_atom_site_occupancy
B2   B   0.905965442970722   0.952938513608789   0.112273483011661   1.0000000
B2   B   0.904792462760591   0.094171883264987   0.110882812119127   1.0000000
B2   B   0.904485295116850   0.236325129136613   0.110067479451307   1.0000000
B2   B   0.904308396613138   0.379194408315886   0.110004032478456   1.0000000
B2   B   0.904535100141743   0.522708828006154   0.110982751923646   1.0000000
B2   B   0.905466947370041   0.666399824699344   0.112877387065435   1.0000000
B2   B   0.905499681849855   0.809580324996778   0.112762522791236   1.0000000
B2   B   0.048571093918398   0.953688239436832   0.110692589984786   1.0000000
B2   B   0.049806683252074   0.097198468299270   0.110572135804123   1.0000000
B2   B   0.048252824170236   0.238014243759482   0.110241415839414   1.0000000
B2   B   0.046506878921668   0.380111923988017   0.109815937557370   1.0000000
B2   B   0.045093732808509   0.523403350947579   0.109759096931790   1.0000000
B2   B   0.046131549521036   0.667057816279164   0.110277548341227   1.0000000
B2   B   0.047620501423246   0.810422955651738   0.110720249047596   1.0000000
B2   B   0.190767790844247   0.953759331311824   0.110044568523553   1.0000000
B2   B   0.192345953946689   0.097655946609302   0.110246904593072   1.0000000
B2   B   0.194804574014204   0.242610606611560   0.110490684223793   1.0000000
B2   B   0.190172926132348   0.381859825744446   0.109980742971743   1.0000000
B2   B   0.185220516279958   0.524462720019856   0.109273725695804   1.0000000
B2   B   0.186373342297539   0.667606852201148   0.109456219585102   1.0000000
B2   B   0.189337902856398   0.810612379135150   0.109907483721968   1.0000000
B2   B   0.332905239524474   0.952821362177585   0.110070158806050   1.0000000
B2   B   0.334132241752818   0.096223510871725   0.110140433751217   1.0000000
B2   B   0.336506822963804   0.241320939056536   0.110370011554952   1.0000000
B2   B   0.341812651946565   0.388377659526045   0.111135932190679   1.0000000
B2   B   0.323691349790732   0.528284770693979   0.111588054937690   1.0000000
B2   B   0.325735015365444   0.668687496410116   0.110784834553870   1.0000000
B2   B   0.331326567220335   0.810343177639616   0.110081407726631   1.0000000
B2   B   0.475245233186159   0.949377328720920   0.110523804557349   1.0000000
B2   B   0.476226858617465   0.093064057580838   0.110212947781385   1.0000000
B2   B   0.477495190752870   0.236181704695698   0.110473084347252   1.0000000
B2   B   0.482391454149265   0.380960149297988   0.109996563624649   1.0000000
B2   B   0.461224658095286   0.656283279511054   0.116181641447042   1.0000000
B2   B   0.473233533235344   0.804271791705636   0.111864399144383   1.0000000
B2   B   0.617816881598740   0.948912767429902   0.111889296242150   1.0000000
B2   B   0.618572603869439   0.092141187845373   0.110265635704580   1.0000000
B2   B   0.619524587708453   0.235077972453426   0.110224316280806   1.0000000
B2   B   0.621350583460069   0.377805268514427   0.111912288963626   1.0000000
B2   B   0.620702075075847   0.517778163544176   0.113432028898241   1.0000000
B2   B   0.645358885064879   0.676029918543906   0.096749809971588   1.0000000
B2   B   0.615954134153222   0.805085929665902   0.115247016115270   1.0000000
B2   B   0.760448056318191   0.950195795616165   0.112689506408480   1.0000000
B2   B   0.761240682925031   0.092695073721416   0.110680535768500   1.0000000
B2   B   0.761785375934287   0.235425691602294   0.109938100673813   1.0000000
B2   B   0.762678984466741   0.378445444760624   0.110821769985442   1.0000000
B2   B   0.763627078040707   0.521463140693603   0.113809968299889   1.0000000
B2   B   0.764437395450392   0.664433871332773   0.115249450783851   1.0000000
B2   B   0.764190713434931   0.810267600945721   0.113949951347746   1.0000000
N2   N   0.952948045889218   0.904991061923219   0.111717316104845   1.0000000
N2   N   0.953986181891413   0.048263372568480   0.111125001698475   1.0000000
N2   N   0.953006853328699   0.189600182262384   0.110284656788532   1.0000000
N2   N   0.951985519178953   0.331693323983181   0.109919252996170   1.0000000
N2   N   0.950989001885803   0.474622194648737   0.110088268111281   1.0000000
N2   N   0.951589743675036   0.618256617823437   0.111164252601184   1.0000000
N2   N   0.952336627359602   0.761792174483635   0.112019927888594   1.0000000
N2   N   0.095549994122340   0.905851525033791   0.110260577391938   1.0000000
N2   N   0.097027449461952   0.049543389327540   0.110369813543074   1.0000000
N2   N   0.098820820441449   0.193476567484056   0.110347440389868   1.0000000
N2   N   0.095808229370153   0.333450213795641   0.109969598954425   1.0000000
N2   N   0.091898284158298   0.475302843725022   0.109525564458060   1.0000000
N2   N   0.092267662289679   0.618761568071543   0.109661346095787   1.0000000
N2   N   0.094298687119037   0.762410826937924   0.110161879464901   1.0000000
N2   N   0.237734097627153   0.905750429468794   0.109961622553277   1.0000000
N2   N   0.239034077822761   0.049402666357390   0.110082025970713   1.0000000
N2   N   0.241437451103104   0.194384304649944   0.110374069905167   1.0000000
N2   N   0.245362505209358   0.340983601767623   0.110713728746010   1.0000000
N2   N   0.232743687854935   0.476463821196293   0.109375262017951   1.0000000
N2   N   0.232199779643598   0.619183867695828   0.109234792937818   1.0000000
N2   N   0.236129027236228   0.762566584081747   0.109705731742070   1.0000000
N2   N   0.380054723407527   0.904636007788841   0.110144366888948   1.0000000
N2   N   0.381050243199667   0.047830464557179   0.110153882279919   1.0000000
N2   N   0.382392872748049   0.192004019148676   0.110205585684614   1.0000000
N2   N   0.386688035191713   0.339279731494589   0.110471089176604   1.0000000
N2   N   0.386582955537344   0.495368425809239   0.112905549998737   1.0000000
N2   N   0.369833877449441   0.619887637934485   0.113108829357027   1.0000000
N2   N   0.378156111842801   0.762010977125359   0.110678431832425   1.0000000
N2   N   0.522057003766370   0.899808752090741   0.111345507327369   1.0000000
N2   N   0.523280965521417   0.044658809190462   0.110271848844132   1.0000000
N2   N   0.524293198935579   0.188189444486314   0.110263799891901   1.0000000
N2   N   0.526183094840511   0.331009154028806   0.110900576940817   1.0000000
N2   N   0.519268007740896   0.750911614180095   0.113637391955919   1.0000000
N2   N   0.664667660291060   0.900864918295862   0.113524269599912   1.0000000
N2   N   0.665806687798299   0.044255536945149   0.110784771539472   1.0000000
N2   N   0.666607889091652   0.187378428437031   0.109922906829994   1.0000000
N2   N   0.667800058284534   0.330234592274999   0.110807037969795   1.0000000
N2   N   0.669162389232218   0.472783496630140   0.114234950337383   1.0000000
N2   N   0.666835830795485   0.612386696126067   0.113616109179199   1.0000000
N2   N   0.666244065318986   0.761086516544197   0.112474247239149   1.0000000
N2   N   0.809995105862653   0.904163340414596   0.113725453199963   1.0000000
N2   N   0.809110082494951   0.045468754513422   0.111206339669390   1.0000000
N2   N   0.809356040514130   0.188027073769554   0.110045588695093   1.0000000
N2   N   0.809579703991123   0.330768778394993   0.110021669870601   1.0000000
N2   N   0.810040650186741   0.473888472319993   0.111693128751060   1.0000000
N2   N   0.810439883173299   0.617059816432454   0.115162229442545   1.0000000
N2   N   0.809374712411768   0.760207440662061   0.114295714985493   1.0000000
O2   O   0.467833305060052   0.567865586983563   0.116849387863084   1.0000000
O2   O   0.530750034448693   0.470511325738675   0.108818636437934   1.0000000


