data_1
_audit_creation_method   'vasp2cif'
_cell_length_a    17.52789999999977
_cell_length_b    17.52789999999977
_cell_length_c    15.0
_cell_angle_alpha    90.0
_cell_angle_beta    90.0
_cell_angle_gamma    119.99999999999916

_symmetry_space_group_name_H-M    'P 1'
loop_
_atom_site_label
_atom_site_type_symbol
_atom_site_fract_x
_atom_site_fract_y
_atom_site_fract_z
_atom_site_occupancy
B2   B   0.910898958277256   0.955673943634841   0.110719714226912   1.0000000
B2   B   0.909112985204280   0.096384509306487   0.110796529142392   1.0000000
B2   B   0.908554735022769   0.237838444618125   0.110763847334034   1.0000000
B2   B   0.908787859475479   0.380020390494974   0.110688051355719   1.0000000
B2   B   0.909216521251513   0.522860801147855   0.110715630698840   1.0000000
B2   B   0.909847813035059   0.666048264202351   0.110762442776549   1.0000000
B2   B   0.905478432287481   0.807952887696221   0.110719245406890   1.0000000
B2   B   0.051303546376165   0.954401264147264   0.110695882114116   1.0000000
B2   B   0.053041940090818   0.097945450946081   0.110750704363592   1.0000000
B2   B   0.051441931012018   0.238812869892137   0.110835554291147   1.0000000
B2   B   0.050242662479207   0.380914179289176   0.110731602277985   1.0000000
B2   B   0.049592574290988   0.524240622422974   0.110712533396897   1.0000000
B2   B   0.050225985413691   0.667872705372081   0.110741618595347   1.0000000
B2   B   0.050051132609419   0.811120164837186   0.110731131815199   1.0000000
B2   B   0.193818333436379   0.955535670699978   0.110703721839949   1.0000000
B2   B   0.196901043848823   0.100472256520481   0.110708571200087   1.0000000
B2   B   0.195647032261069   0.241131596275225   0.110761820553923   1.0000000
B2   B   0.192203021917494   0.381321658531886   0.110746305214658   1.0000000
B2   B   0.189361867234998   0.524723140937495   0.110735140932716   1.0000000
B2   B   0.189893125046877   0.668661596707242   0.110777693065128   1.0000000
B2   B   0.192299422528989   0.812031822864666   0.110758444086836   1.0000000
B2   B   0.335671682336729   0.955152196581575   0.110740374712132   1.0000000
B2   B   0.337722021961327   0.099263737646407   0.110744369711268   1.0000000
B2   B   0.344300387672413   0.248182158474239   0.110804342407898   1.0000000
B2   B   0.337282951860385   0.384040706611569   0.110765766077145   1.0000000
B2   B   0.328009010264315   0.525073119566641   0.110697344025012   1.0000000
B2   B   0.328306839481720   0.669247389080827   0.110730266721694   1.0000000
B2   B   0.334202535200852   0.812270810034806   0.110834838931017   1.0000000
B2   B   0.477806387432281   0.953594467439899   0.110737290396875   1.0000000
B2   B   0.479148884642351   0.095919537452624   0.110737380244347   1.0000000
B2   B   0.481311503526270   0.239166746654885   0.110824709668337   1.0000000
B2   B   0.499131997373106   0.396381393989788   0.110873191769229   1.0000000
B2   B   0.463990649816585   0.665653180120835   0.110765945848147   1.0000000
B2   B   0.476636416535571   0.811017027136918   0.110798589516503   1.0000000
B2   B   0.620956458247899   0.955508446090141   0.110738066089750   1.0000000
B2   B   0.621747854673565   0.095007186969865   0.110677423699088   1.0000000
B2   B   0.622857731351296   0.234655425864517   0.110703484704344   1.0000000
B2   B   0.625307640942191   0.372975645932452   0.110835487132203   1.0000000
B2   B   0.614902984258185   0.498339518398032   0.110820598695993   1.0000000
B2   B   0.621049790419616   0.817014772591441   0.110646109733229   1.0000000
B2   B   0.765804656568770   0.954879312446645   0.110742384710984   1.0000000
B2   B   0.765345987985470   0.095637474487500   0.110703561740443   1.0000000
B2   B   0.765834996440455   0.236632993712916   0.110675591097804   1.0000000
B2   B   0.767254061964515   0.377923999978076   0.110684470424138   1.0000000
B2   B   0.767646221198970   0.518977707121193   0.110797073232147   1.0000000
B2   B   0.764761393732967   0.656664828109920   0.110732107068400   1.0000000
B2   B   0.769024083152961   0.815596270272856   0.110622768798913   1.0000000
In2   In   0.614429499044997   0.657554792364652   0.110752472337107   1.0000000
N2   N   0.955513871825439   0.905077902099675   0.110682868031090   1.0000000
N2   N   0.958099213412486   0.050313522997177   0.110747262599877   1.0000000
N2   N   0.956366917474341   0.190982443616301   0.110825261084971   1.0000000
N2   N   0.955716874682188   0.332602451243900   0.110708599725183   1.0000000
N2   N   0.955621491490454   0.475151278782277   0.110687911933309   1.0000000
N2   N   0.956397796761379   0.618476464965085   0.110715631473211   1.0000000
N2   N   0.954914516798675   0.761867064992950   0.110720363203919   1.0000000
N2   N   0.098469479639080   0.906745206488040   0.110691437568076   1.0000000
N2   N   0.100543909483004   0.050528202168221   0.110676522319855   1.0000000
N2   N   0.100057938282657   0.192469454406775   0.110780200951744   1.0000000
N2   N   0.097341747208778   0.333291923252566   0.110766033424576   1.0000000
N2   N   0.095437938172959   0.475949503451712   0.110696551589642   1.0000000
N2   N   0.095907670289205   0.619684029511432   0.110726772285971   1.0000000
N2   N   0.097270611815037   0.763456174514018   0.110727058182960   1.0000000
N2   N   0.240487296379882   0.907397917881326   0.110707755391028   1.0000000
N2   N   0.242443608786714   0.051031309035564   0.110689491970370   1.0000000
N2   N   0.246268878321951   0.196531611658283   0.110733329122875   1.0000000
N2   N   0.241023381169406   0.334896283309885   0.110741603304052   1.0000000
N2   N   0.234565368103561   0.475835381229099   0.110714048744746   1.0000000
N2   N   0.234385921183284   0.620130689463013   0.110738132332848   1.0000000
N2   N   0.238812896318541   0.764204446348067   0.110792645142757   1.0000000
N2   N   0.382582515951442   0.907336344076314   0.110768845161442   1.0000000
N2   N   0.383995040164299   0.050116649423854   0.110723860363777   1.0000000
N2   N   0.386441101844084   0.194470816064470   0.110778938631163   1.0000000
N2   N   0.395662762679826   0.345789413272984   0.110812882415357   1.0000000
N2   N   0.372852244969475   0.476199144173841   0.110682982936664   1.0000000
N2   N   0.370304560054059   0.620410052114228   0.110636183847220   1.0000000
N2   N   0.380610570855842   0.764851057115607   0.110801943910403   1.0000000
N2   N   0.525384195595190   0.906616223746549   0.110745203037733   1.0000000
N2   N   0.526474538110625   0.048293137247664   0.110689113344073   1.0000000
N2   N   0.527865598292940   0.190003896339165   0.110737494764650   1.0000000
N2   N   0.531082460584066   0.332522465229885   0.110869208228878   1.0000000
N2   N   0.462319441597717   0.518767297351832   0.110675305797762   1.0000000
N2   N   0.491900713538733   0.606210350598872   0.110845148493882   1.0000000
N2   N   0.523773141967570   0.763603844197910   0.110737868371601   1.0000000
N2   N   0.669885211618464   0.911184959741587   0.110736093013378   1.0000000
N2   N   0.670048822580476   0.049409264473074   0.110670023019934   1.0000000
N2   N   0.670793470543604   0.188720361998703   0.110661758682936   1.0000000
N2   N   0.672903097564654   0.327717735591556   0.110693065682138   1.0000000
N2   N   0.674155706538469   0.465102757291245   0.110857717913875   1.0000000
N2   N   0.673633239821750   0.592743953403391   0.110652598834446   1.0000000
N2   N   0.678659375248023   0.783682497696991   0.110410713211732   1.0000000
N2   N   0.817162506507268   0.910295023654939   0.110707566955986   1.0000000
N2   N   0.813916285267476   0.049433115010806   0.110735266432306   1.0000000
N2   N   0.813623187159057   0.190097474698889   0.110694113563163   1.0000000
N2   N   0.814424846714789   0.331189287814452   0.110652143418804   1.0000000
N2   N   0.815416347582003   0.472824045022974   0.110703464966995   1.0000000
N2   N   0.816661854115750   0.615055638581665   0.110770855800892   1.0000000
N2   N   0.809105265657858   0.757836846085248   0.110686094840687   1.0000000


