data_1
_audit_creation_method   'vasp2cif'
_cell_length_a    14.93631414619966
_cell_length_b    14.936314146199727
_cell_length_c    13.341276283792837
_cell_angle_alpha    90.0
_cell_angle_beta    90.0
_cell_angle_gamma    119.99999999999984

_symmetry_space_group_name_H-M    'P 1'
loop_
_atom_site_label
_atom_site_type_symbol
_atom_site_fract_x
_atom_site_fract_y
_atom_site_fract_z
_atom_site_occupancy
In2   In   0.555555555555557   0.444444444444443   0.375000000000000   1.0000000
N2   N   0.111100462308756   0.055552673121281   0.125229960852159   1.0000000
N2   N   0.611165839039746   0.555665011412843   0.120613817151965   1.0000000
N2   N   0.444451572147181   0.055569090111647   0.125307714182759   1.0000000
N2   N   0.944430909888343   0.555548427852819   0.125307714182759   1.0000000
N2   N   0.777784403967794   0.055558868650566   0.124962373607498   1.0000000
N2   N   0.111105151285708   0.722219242309562   0.624930214654898   1.0000000
N2   N   0.444451572147181   0.722215815368835   0.624692285817223   1.0000000
N2   N   0.277752383648584   0.222216063439852   0.625488467683113   1.0000000
N2   N   0.777783936560127   0.722247616351475   0.625488467683113   1.0000000
N2   N   0.611130346457901   0.222216063439852   0.625488467683113   1.0000000
N2   N   0.944441131349443   0.222215596032200   0.625037626392523   1.0000000
N2   N   0.277780757690483   0.722219242309562   0.125069785345079   1.0000000
N2   N   0.111081566487503   0.222207449910420   0.124985004559964   1.0000000
N2   N   0.444460052907838   0.222253439148985   0.124066115412317   1.0000000
N2   N   0.611130346457901   0.722247616351476   0.124511532316904   1.0000000
N2   N   0.944430909888343   0.722215815368835   0.125307714182759   1.0000000
N2   N   0.777792550089636   0.222207449910420   0.124985004559964   1.0000000
N2   N   0.111109173697312   0.888890826302657   0.624809958359353   1.0000000
N2   N   0.444448319272036   0.888890826302657   0.624809958359353   1.0000000
N2   N   0.277752383648583   0.388869653542050   0.625488467683113   1.0000000
N2   N   0.611165839039746   0.388834160960242   0.629386182848006   1.0000000
N2   N   0.777792550089636   0.888918433512485   0.625014995440073   1.0000000
N2   N   0.944447326878742   0.388881122520804   0.624770039147889   1.0000000
N2   N   0.111100462308757   0.388881122520804   0.125229960852159   1.0000000
N2   N   0.277780757690483   0.888894848714294   0.125069785345079   1.0000000
N2   N   0.611118877479186   0.888899537691263   0.125229960852159   1.0000000
N2   N   0.444334988587183   0.388834160960243   0.120613817151966   1.0000000
N2   N   0.944447326878742   0.888899537691263   0.125229960852159   1.0000000
N2   N   0.777783936560128   0.388869653542051   0.124511532316904   1.0000000
N2   N   0.277784184631125   0.555548427852816   0.624692285817223   1.0000000
N2   N   0.111100462308755   0.055552673121281   0.624770039147889   1.0000000
N2   N   0.611165839039743   0.555665011412843   0.629386182848006   1.0000000
N2   N   0.444451572147181   0.055569090111647   0.624692285817223   1.0000000
N2   N   0.944430909888343   0.555548427852819   0.624692285817223   1.0000000
N2   N   0.111109173697312   0.555551680727960   0.125190041640699   1.0000000
N2   N   0.777784403967794   0.055558868650566   0.625037626392523   1.0000000
N2   N   0.277784184631125   0.055569090111647   0.125307714182759   1.0000000
N2   N   0.444460052907838   0.555539947092163   0.124066115412317   1.0000000
N2   N   0.777746560850989   0.555539947092163   0.124066115412320   1.0000000
N2   N   0.611118877479186   0.055552673121279   0.125229960852159   1.0000000
N2   N   0.444460052907838   0.555539947092163   0.625933884587680   1.0000000
N2   N   0.944441131349455   0.055558868650566   0.124962373607498   1.0000000
N2   N   0.277780757690482   0.722219242309562   0.624930214654898   1.0000000
N2   N   0.111081566487503   0.222207449910420   0.625014995440073   1.0000000
N2   N   0.444460052907838   0.222253439148985   0.625933884587680   1.0000000
N2   N   0.611130346457901   0.722247616351476   0.625488467683113   1.0000000
N2   N   0.944430909888343   0.722215815368835   0.624692285817223   1.0000000
N2   N   0.777792550089636   0.222207449910420   0.625014995440073   1.0000000
N2   N   0.111105151285708   0.722219242309562   0.125069785345079   1.0000000
N2   N   0.444451572147181   0.722215815368835   0.125307714182759   1.0000000
N2   N   0.277752383648585   0.222216063439852   0.124511532316904   1.0000000
N2   N   0.777783936560127   0.722247616351464   0.124511532316903   1.0000000
N2   N   0.611130346457901   0.222216063439852   0.124511532316903   1.0000000
N2   N   0.944441131349442   0.222215596032200   0.124962373607498   1.0000000
N2   N   0.111100462308755   0.388881122520804   0.624770039147889   1.0000000
N2   N   0.277780757690482   0.888894848714294   0.624930214654898   1.0000000
N2   N   0.611118877479186   0.888899537691263   0.624770039147889   1.0000000
N2   N   0.444334988587183   0.388834160960242   0.629386182848010   1.0000000
N2   N   0.944447326878742   0.888899537691263   0.624770039147889   1.0000000
N2   N   0.111109173697312   0.888890826302657   0.125190041640699   1.0000000
N2   N   0.777783936560127   0.388869653542052   0.625488467683113   1.0000000
N2   N   0.444448319272036   0.888890826302657   0.125190041640699   1.0000000
N2   N   0.277752383648582   0.388869653542051   0.124511532316904   1.0000000
N2   N   0.277784184631125   0.555548427852819   0.125307714182759   1.0000000
N2   N   0.611165839039746   0.388834160960242   0.120613817151964   1.0000000
N2   N   0.777792550089636   0.888918433512485   0.124985004559964   1.0000000
N2   N   0.944447326878742   0.388881122520804   0.125229960852159   1.0000000
N2   N   0.111109173697312   0.555551680727960   0.624809958359353   1.0000000
N2   N   0.277784184631125   0.055569090111647   0.624692285817223   1.0000000
N2   N   0.777746560850989   0.555539947092163   0.625933884587679   1.0000000
N2   N   0.611118877479187   0.055552673121279   0.624770039147889   1.0000000
N2   N   0.944441131349455   0.055558868650566   0.625037626392523   1.0000000
N2   N   0.054032037775419   0.110106193637321   0.375000000000000   1.0000000
N2   N   0.555584877951583   0.623844486962242   0.375000000000000   1.0000000
N2   N   0.387163887307255   0.107661107947834   0.375000000000000   1.0000000
N2   N   0.892338892052145   0.612836112692712   0.375000000000000   1.0000000
N2   N   0.722740822528578   0.110106193637318   0.375000000000000   1.0000000
N2   N   0.055559005179814   0.777779766289967   0.875000000000000   1.0000000
N2   N   0.388887427776811   0.777779766289967   0.875000000000000   1.0000000
N2   N   0.222226871064056   0.277780102198700   0.875000000000000   1.0000000
N2   N   0.722219897801315   0.777773128935935   0.875000000000000   1.0000000
N2   N   0.555545240362867   0.277761887895312   0.875000000000000   1.0000000
N2   N   0.888889961896885   0.277782872324786   0.875000000000000   1.0000000
N2   N   0.222222222222221   0.777777777777779   0.375000000000000   1.0000000
N2   N   0.054032037775418   0.277259177471415   0.375000000000000   1.0000000
N2   N   0.376155513037737   0.265073724322634   0.375000000000000   1.0000000
N2   N   0.554963416497484   0.782960310395761   0.375000000000000   1.0000000
N2   N   0.894663560564968   0.782960310395762   0.375000000000000   1.0000000
N2   N   0.724657302554571   0.275342697445401   0.375000000000000   1.0000000
N2   N   0.055557423507091   0.944442576492923   0.875000000000000   1.0000000
N2   N   0.388887427776811   0.944440994820225   0.875000000000000   1.0000000
N2   N   0.222222760608858   0.444451319574587   0.875000000000000   1.0000000
N2   N   0.555555555555557   0.444444444444443   0.875000000000000   1.0000000
N2   N   0.722217127675216   0.944440422905395   0.875000000000000   1.0000000
N2   N   0.888895225632368   0.444451319574588   0.875000000000000   1.0000000
N2   N   0.055834711905852   0.445002757145065   0.375000000000000   1.0000000
N2   N   0.221691796905410   0.943025283981881   0.375000000000000   1.0000000
N2   N   0.554997242854989   0.944165288094158   0.375000000000000   1.0000000
N2   N   0.376155513037741   0.444415122048438   0.375000000000000   1.0000000
N2   N   0.889893806362658   0.945967962224558   0.375000000000000   1.0000000
N2   N   0.734926275677406   0.444415122048438   0.375000000000000   1.0000000
N2   N   0.222220233710048   0.611112572223168   0.875000000000000   1.0000000
N2   N   0.055559577094607   0.111110038103150   0.875000000000000   1.0000000
N2   N   0.555545240362867   0.611116685800915   0.875000000000000   1.0000000
N2   N   0.388883128250952   0.111099589835276   0.875000000000000   1.0000000
N2   N   0.888900410164754   0.611116871749031   0.875000000000000   1.0000000
N2   N   0.056974716018126   0.611999846256899   0.375000000000000   1.0000000
N2   N   0.722217127675216   0.111110038103152   0.875000000000000   1.0000000
N2   N   0.217039689604261   0.105336439435048   0.375000000000000   1.0000000
N2   N   0.387163887307254   0.612836112692712   0.375000000000000   1.0000000
N2   N   0.734926275677405   0.623844486962246   0.375000000000000   1.0000000
N2   N   0.554963416497484   0.105336439435050   0.375000000000000   1.0000000
N2   N   0.388883128250952   0.611116871749032   0.875000000000000   1.0000000
N2   N   0.888888888888886   0.111111111111114   0.375000000000000   1.0000000
N2   N   0.222222222222221   0.777777777777779   0.875000000000000   1.0000000
N2   N   0.055559577094607   0.277782872324786   0.875000000000000   1.0000000
N2   N   0.388883314199145   0.277761887895312   0.875000000000000   1.0000000
N2   N   0.555548680425376   0.777777239391128   0.875000000000000   1.0000000
N2   N   0.888895225632368   0.777777239391128   0.875000000000000   1.0000000
N2   N   0.722219897801315   0.277780102198700   0.875000000000000   1.0000000
N2   N   0.056974716018126   0.778308203094594   0.375000000000000   1.0000000
N2   N   0.388000153743114   0.778308203094556   0.375000000000000   1.0000000
N2   N   0.217352061557492   0.275342697445400   0.375000000000000   1.0000000
N2   N   0.724657302554575   0.782647938442552   0.375000000000000   1.0000000
N2   N   0.555584877951579   0.265073724322628   0.375000000000000   1.0000000
N2   N   0.889893806362658   0.277259177471414   0.375000000000000   1.0000000
N2   N   0.055557423507091   0.444448180347506   0.875000000000000   1.0000000
N2   N   0.222220233710048   0.944440994820225   0.875000000000000   1.0000000
N2   N   0.555551819652512   0.944442576492923   0.875000000000000   1.0000000
N2   N   0.388883314199138   0.444454759637117   0.875000000000000   1.0000000
N2   N   0.888889961896885   0.944440422905395   0.875000000000000   1.0000000
N2   N   0.055834711905853   0.944165288094158   0.375000000000000   1.0000000
N2   N   0.722238112104714   0.444454759637117   0.875000000000000   1.0000000
N2   N   0.388000153743113   0.943025283981859   0.375000000000000   1.0000000
N2   N   0.217039689604251   0.445036583502525   0.375000000000000   1.0000000
N2   N   0.221691796905412   0.611999846256898   0.375000000000000   1.0000000
N2   N   0.722740822528578   0.945967962224558   0.375000000000000   1.0000000
N2   N   0.894663560564968   0.445036583502524   0.375000000000000   1.0000000
N2   N   0.055559005179814   0.611112572223168   0.875000000000000   1.0000000
N2   N   0.222222760608858   0.111104774367606   0.875000000000000   1.0000000
N2   N   0.722238112104714   0.611116685800914   0.875000000000000   1.0000000
N2   N   0.555548680425376   0.111104774367606   0.875000000000000   1.0000000
N2   N   0.888888888888886   0.111111111111114   0.875000000000000   1.0000000
B2   B   0.108109417592883   0.053249596254645   0.375000000000000   1.0000000
B2   B   0.629101843240063   0.591537019813391   0.375000000000000   1.0000000
B2   B   0.443782678439014   0.053033249500699   0.375000000000000   1.0000000
B2   B   0.946966750499339   0.556217321560983   0.375000000000000   1.0000000
B2   B   0.778493692562024   0.055913512947683   0.375000000000000   1.0000000
B2   B   0.111107649026311   0.722220491179800   0.875000000000000   1.0000000
B2   B   0.444444855593901   0.722215608901500   0.875000000000000   1.0000000
B2   B   0.277802621300847   0.222236512883645   0.875000000000000   1.0000000
B2   B   0.777763487116355   0.722197378699204   0.875000000000000   1.0000000
B2   B   0.611100558249496   0.222236512883645   0.875000000000000   1.0000000
B2   B   0.944446085335208   0.222225504003780   0.875000000000000   1.0000000
B2   B   0.277383070442832   0.722616929557177   0.375000000000000   1.0000000
B2   B   0.107812569406992   0.220572951370160   0.375000000000000   1.0000000
B2   B   0.442170695801768   0.217674724936894   0.375000000000000   1.0000000
B2   B   0.612594361652051   0.732187001502381   0.375000000000000   1.0000000
B2   B   0.946966750499339   0.724082762271634   0.375000000000000   1.0000000
B2   B   0.779427048629888   0.220572951370160   0.375000000000000   1.0000000
B2   B   0.111109729939033   0.888890270060928   0.875000000000000   1.0000000
B2   B   0.444447206788581   0.888890270060928   0.875000000000000   1.0000000
B2   B   0.277802621300847   0.388899441750529   0.875000000000000   1.0000000
B2   B   0.611097996771110   0.388902003228833   0.875000000000000   1.0000000
B2   B   0.777771086035068   0.888875505403550   0.875000000000000   1.0000000
B2   B   0.944439763727740   0.388891054116189   0.875000000000000   1.0000000
B2   B   0.108109417592883   0.388193154671552   0.375000000000000   1.0000000
B2   B   0.277383070442833   0.888099474218993   0.375000000000000   1.0000000
B2   B   0.611806845328400   0.891890582407122   0.375000000000000   1.0000000
B2   B   0.408462980186564   0.370898156759966   0.375000000000000   1.0000000
B2   B   0.946750403745373   0.891890582407122   0.375000000000000   1.0000000
B2   B   0.786259306516953   0.387405638347989   0.375000000000000   1.0000000
B2   B   0.277784391098516   0.555555144406098   0.875000000000000   1.0000000
B2   B   0.111117957055132   0.055560236272268   0.875000000000000   1.0000000
B2   B   0.611097996771110   0.555529326875663   0.875000000000000   1.0000000
B2   B   0.444444855593901   0.055562580025730   0.875000000000000   1.0000000
B2   B   0.944437419974286   0.555555144406098   0.875000000000000   1.0000000
B2   B   0.111307089351791   0.555947512036897   0.375000000000000   1.0000000
B2   B   0.777774495996205   0.055553914664777   0.875000000000000   1.0000000
B2   B   0.275917237728308   0.053033249500699   0.375000000000000   1.0000000
B2   B   0.442170695801750   0.557829304198263   0.375000000000000   1.0000000
B2   B   0.782325275063131   0.557829304198243   0.375000000000000   1.0000000
B2   B   0.611806845328404   0.053249596254644   0.375000000000000   1.0000000
B2   B   0.444452196969408   0.555547803030622   0.875000000000000   1.0000000
B2   B   0.944086487052304   0.055913512947683   0.375000000000000   1.0000000
B2   B   0.277779508820180   0.722220491179800   0.875000000000000   1.0000000
B2   B   0.111124494596453   0.222228913964888   0.875000000000000   1.0000000
B2   B   0.444452196969408   0.222237727272141   0.875000000000000   1.0000000
B2   B   0.611100558249496   0.722197378699204   0.875000000000000   1.0000000
B2   B   0.944437419974286   0.722215608901500   0.875000000000000   1.0000000
B2   B   0.777771086035068   0.222228913964888   0.875000000000000   1.0000000
B2   B   0.111900525781022   0.722616929557177   0.375000000000000   1.0000000
B2   B   0.443782678439014   0.724082762271633   0.375000000000000   1.0000000
B2   B   0.267812998497640   0.213740693483002   0.375000000000000   1.0000000
B2   B   0.786259306516953   0.732187001502381   0.375000000000000   1.0000000
B2   B   0.612594361652064   0.213740693483007   0.375000000000000   1.0000000
B2   B   0.944086487052304   0.221506307437970   0.375000000000000   1.0000000
B2   B   0.111117957055132   0.388891054116183   0.875000000000000   1.0000000
B2   B   0.277779508820180   0.888892350973688   0.875000000000000   1.0000000
B2   B   0.611108945883843   0.888882042944865   0.875000000000000   1.0000000
B2   B   0.444470673124396   0.388902003228833   0.875000000000000   1.0000000
B2   B   0.944439763727741   0.888882042944865   0.875000000000000   1.0000000
B2   B   0.111307089351789   0.888692910648222   0.375000000000000   1.0000000
B2   B   0.777763487116354   0.388899441750529   0.875000000000000   1.0000000
B2   B   0.444052487963092   0.888692910648222   0.375000000000000   1.0000000
B2   B   0.267812998497636   0.387405638347984   0.375000000000000   1.0000000
B2   B   0.275917237728308   0.556217321560984   0.375000000000000   1.0000000
B2   B   0.629101843240056   0.370898156759974   0.375000000000000   1.0000000
B2   B   0.779427048629887   0.892187430593033   0.375000000000000   1.0000000
B2   B   0.946750403745367   0.388193154671552   0.375000000000000   1.0000000
B2   B   0.111109729939033   0.555552793211382   0.875000000000000   1.0000000
B2   B   0.277784391098519   0.055562580025730   0.875000000000000   1.0000000
B2   B   0.777762272727849   0.555547803030622   0.875000000000000   1.0000000
B2   B   0.611108945883843   0.055560236272268   0.875000000000000   1.0000000
B2   B   0.944446085335208   0.055553914664777   0.875000000000000   1.0000000
B2   B   0.055539470159792   0.111113628204075   0.125025115552262   1.0000000
B2   B   0.555608106978767   0.611073512918944   0.123012765919748   1.0000000
B2   B   0.388927708330250   0.111188749993842   0.124996132170817   1.0000000
B2   B   0.888811250006158   0.611072291669772   0.124996132170817   1.0000000
B2   B   0.722240824710981   0.111113628204075   0.125025115552262   1.0000000
B2   B   0.055531827343681   0.777771458134515   0.624851889069280   1.0000000
B2   B   0.388906297457485   0.777771458134515   0.624851889069280   1.0000000
B2   B   0.222209464292223   0.277771398812775   0.625397112452890   1.0000000
B2   B   0.722228601187236   0.777790535707775   0.625397112452890   1.0000000
B2   B   0.555608106978772   0.277867927393152   0.626987234080257   1.0000000
B2   B   0.888886371795937   0.277759175289068   0.624974884447693   1.0000000
B2   B   0.222222222222221   0.777777777777779   0.124978806605438   1.0000000
B2   B   0.055539470159792   0.277759175289069   0.125025115552262   1.0000000
B2   B   0.388926487081059   0.277867927393150   0.123012765919748   1.0000000
B2   B   0.555583956378507   0.777773966675034   0.125050047520878   1.0000000
B2   B   0.888856676963171   0.777773966675034   0.125050047520878   1.0000000
B2   B   0.722228601187236   0.277771398812776   0.124602887547133   1.0000000
B2   B   0.055544773374632   0.944455226625339   0.624794767042270   1.0000000
B2   B   0.388906297457486   0.944468172656261   0.624851889069280   1.0000000
B2   B   0.222226033324955   0.444416043621473   0.624949952479133   1.0000000
B2   B   0.555555555555557   0.444444444444443   0.628563133251929   1.0000000
B2   B   0.722240824710995   0.944460529840216   0.624974884447693   1.0000000
B2   B   0.888856676963157   0.444416043621473   0.624949952479133   1.0000000
B2   B   0.055544773374632   0.444422880082606   0.125205232957697   1.0000000
B2   B   0.222228541865471   0.944468172656261   0.125148110930711   1.0000000
B2   B   0.555577119917432   0.944455226625339   0.125205232957697   1.0000000
B2   B   0.388926487081059   0.444391893021229   0.123012765919748   1.0000000
B2   B   0.888886371795928   0.944460529840216   0.125025115552262   1.0000000
B2   B   0.722132072606819   0.444391893021229   0.123012765919748   1.0000000
B2   B   0.222228541865471   0.611093702542528   0.624851889069280   1.0000000
B2   B   0.055539470159792   0.111113628204075   0.624974884447693   1.0000000
B2   B   0.555608106978770   0.611073512918944   0.626987234080256   1.0000000
B2   B   0.388927708330250   0.111188749993842   0.625003867829204   1.0000000
B2   B   0.888811250006157   0.611072291669772   0.625003867829204   1.0000000
B2   B   0.055531827343681   0.611093702542528   0.125148110930711   1.0000000
B2   B   0.722240824710981   0.111113628204075   0.624974884447693   1.0000000
B2   B   0.222226033324955   0.111143323036834   0.125050047520878   1.0000000
B2   B   0.388927708330250   0.611072291669772   0.124996132170817   1.0000000
B2   B   0.722132072606818   0.611073512918944   0.123012765919748   1.0000000
B2   B   0.555583956378506   0.111143323036834   0.125050047520878   1.0000000
B2   B   0.388927708330250   0.611072291669772   0.625003867829204   1.0000000
B2   B   0.888888888888886   0.111111111111114   0.124925835788133   1.0000000
B2   B   0.222222222222221   0.777777777777779   0.625021193394578   1.0000000
B2   B   0.055539470159792   0.277759175289069   0.624974884447693   1.0000000
B2   B   0.388926487081058   0.277867927393150   0.626987234080257   1.0000000
B2   B   0.555583956378506   0.777773966675034   0.624949952479133   1.0000000
B2   B   0.888856676963172   0.777773966675034   0.624949952479133   1.0000000
B2   B   0.722228601187236   0.277771398812775   0.625397112452890   1.0000000
B2   B   0.055531827343681   0.777771458134515   0.125148110930711   1.0000000
B2   B   0.388906297457485   0.777771458134515   0.125148110930711   1.0000000
B2   B   0.222209464292224   0.277771398812776   0.124602887547133   1.0000000
B2   B   0.722228601187236   0.777790535707775   0.124602887547133   1.0000000
B2   B   0.555608106978772   0.277867927393150   0.123012765919748   1.0000000
B2   B   0.888886371795937   0.277759175289069   0.125025115552262   1.0000000
B2   B   0.055544773374632   0.444422880082606   0.624794767042270   1.0000000
B2   B   0.222228541865471   0.944468172656261   0.624851889069280   1.0000000
B2   B   0.555577119917432   0.944455226625339   0.624794767042270   1.0000000
B2   B   0.388926487081059   0.444391893021229   0.626987234080257   1.0000000
B2   B   0.888886371795937   0.944460529840216   0.624974884447693   1.0000000
B2   B   0.055544773374632   0.944455226625339   0.125205232957697   1.0000000
B2   B   0.722132072606819   0.444391893021229   0.626987234080257   1.0000000
B2   B   0.388906297457485   0.944468172656261   0.125148110930711   1.0000000
B2   B   0.222226033324955   0.444416043621473   0.125050047520878   1.0000000
B2   B   0.222228541865471   0.611093702542528   0.125148110930711   1.0000000
B2   B   0.555555555555557   0.444444444444443   0.121436866748077   1.0000000
B2   B   0.722240824710995   0.944460529840216   0.125025115552262   1.0000000
B2   B   0.888856676963171   0.444416043621473   0.125050047520878   1.0000000
B2   B   0.055531827343681   0.611093702542528   0.624851889069280   1.0000000
B2   B   0.222226033324955   0.111143323036834   0.624949952479133   1.0000000
B2   B   0.722132072606819   0.611073512918944   0.626987234080256   1.0000000
B2   B   0.555583956378506   0.111143323036834   0.624949952479133   1.0000000
B2   B   0.888888888888886   0.111111111111114   0.625074164211814   1.0000000


