data_1
_audit_creation_method   'vasp2cif'
_cell_length_a    17.52789999999977
_cell_length_b    17.52789999999977
_cell_length_c    15.0
_cell_angle_alpha    90.0
_cell_angle_beta    90.0
_cell_angle_gamma    119.99999999999916

_symmetry_space_group_name_H-M    'P 1'
loop_
_atom_site_label
_atom_site_type_symbol
_atom_site_fract_x
_atom_site_fract_y
_atom_site_fract_z
_atom_site_occupancy
Ga2   Ga   0.410315222944146   0.479070063458554   0.109947820798740   1.0000000
B2   B   0.909021078704206   0.955595527584870   0.110565219932287   1.0000000
B2   B   0.907807182824696   0.098172548563424   0.110643736345466   1.0000000
B2   B   0.906879813646831   0.240488101440318   0.110781590799337   1.0000000
B2   B   0.905288547325241   0.382317709849507   0.110471328210467   1.0000000
B2   B   0.902838648422705   0.523978329562295   0.110426500084404   1.0000000
B2   B   0.905776999313489   0.666646138725509   0.110816401961476   1.0000000
B2   B   0.909117493231142   0.812085054609356   0.110968500546155   1.0000000
B2   B   0.049032724817885   0.950754439235329   0.110340332816654   1.0000000
B2   B   0.048687870265783   0.094215845066220   0.110835723697197   1.0000000
B2   B   0.049978186130374   0.239143795614625   0.111098585327009   1.0000000
B2   B   0.049974546090603   0.381805875799538   0.110820100952111   1.0000000
B2   B   0.048217360890012   0.523599908806841   0.110412295792917   1.0000000
B2   B   0.048523273335497   0.665389385261113   0.110560892907533   1.0000000
B2   B   0.048929733208671   0.807796495836463   0.110563666343997   1.0000000
B2   B   0.190796510578339   0.948128586983173   0.110525791538212   1.0000000
B2   B   0.188523710057244   0.088519976518428   0.111014124105069   1.0000000
B2   B   0.188645223848023   0.232304866046508   0.111339046579469   1.0000000
B2   B   0.194784934091252   0.381001823747809   0.111063490105333   1.0000000
B2   B   0.193000120750258   0.523774597397285   0.110978064113743   1.0000000
B2   B   0.192632588660206   0.665665712065565   0.110472651076482   1.0000000
B2   B   0.191824841502839   0.807035375814548   0.110536894437333   1.0000000
B2   B   0.334602293442749   0.948824953882730   0.110636126856291   1.0000000
B2   B   0.332677670557766   0.087143897636686   0.111219792885685   1.0000000
B2   B   0.327555723767968   0.220920139891812   0.112098747137640   1.0000000
B2   B   0.328860334248219   0.359564584739356   0.107337762273383   1.0000000
B2   B   0.338225274344136   0.532272313558718   0.113307485173168   1.0000000
B2   B   0.337747419197426   0.670104109615953   0.110248889825788   1.0000000
B2   B   0.336024561597140   0.809264513797395   0.110410693016334   1.0000000
B2   B   0.478944691320261   0.951925498008369   0.110766334414975   1.0000000
B2   B   0.477471476531102   0.092705148496198   0.110663771729837   1.0000000
B2   B   0.474835728750834   0.232042042278488   0.111741469170544   1.0000000
B2   B   0.465295284281330   0.364173731457091   0.113426643022939   1.0000000
B2   B   0.483557570773089   0.667286741105634   0.109921553808808   1.0000000
B2   B   0.480713588208723   0.810384150746925   0.110472079033716   1.0000000
B2   B   0.622744480348760   0.956003460640707   0.110925097380138   1.0000000
B2   B   0.621341902024399   0.097418355087664   0.110702645378773   1.0000000
B2   B   0.619566499102570   0.239775066624866   0.110552758150494   1.0000000
B2   B   0.615656038287495   0.383532691619695   0.111036428194383   1.0000000
B2   B   0.614067155284657   0.539797656001189   0.109613706594100   1.0000000
B2   B   0.634035971428558   0.682045916498638   0.110551902216604   1.0000000
B2   B   0.625082160165515   0.815926544556859   0.111002736161829   1.0000000
B2   B   0.766411369215371   0.957282387673820   0.110932718037088   1.0000000
B2   B   0.764776474322404   0.098755261197527   0.110779233831572   1.0000000
B2   B   0.763223497490483   0.240698265027627   0.110559557294130   1.0000000
B2   B   0.760565424881921   0.382881876496672   0.110334274905965   1.0000000
B2   B   0.756101041167265   0.525396851213997   0.110398093001025   1.0000000
B2   B   0.769192421949490   0.673539670748513   0.111278415650833   1.0000000
B2   B   0.770027234982594   0.817410033155512   0.111508857407142   1.0000000
N2   N   0.955300166664005   0.906344840785213   0.110444639467232   1.0000000
N2   N   0.954689857693764   0.049623108931513   0.110408893049704   1.0000000
N2   N   0.954666504396475   0.192889828715404   0.110811245206568   1.0000000
N2   N   0.953990345968619   0.335246382289694   0.110709331835989   1.0000000
N2   N   0.952065383856991   0.477091245348047   0.110347496184093   1.0000000
N2   N   0.953021841210013   0.618866133751373   0.110596959772261   1.0000000
N2   N   0.954337188980027   0.761950630487507   0.110820296452809   1.0000000
N2   N   0.096076170124294   0.902346182541312   0.110331578397567   1.0000000
N2   N   0.094636375240873   0.044469018475068   0.110511044797638   1.0000000
N2   N   0.094564435483961   0.188146065778409   0.111458342503721   1.0000000
N2   N   0.098011779788670   0.334220491056558   0.111055752430025   1.0000000
N2   N   0.096750548652263   0.476793341022051   0.110545524560333   1.0000000
N2   N   0.096691145280515   0.618549597198817   0.110459583587544   1.0000000
N2   N   0.096542627948840   0.760261617152807   0.110561556129376   1.0000000
N2   N   0.239304120383102   0.901604900065452   0.110558647661618   1.0000000
N2   N   0.237554906886607   0.041912055432336   0.110792756113922   1.0000000
N2   N   0.233883908221937   0.181166505021160   0.111627097247797   1.0000000
N2   N   0.235682017472641   0.325830172871813   0.110146724258458   1.0000000
N2   N   0.241260553519816   0.477324615130803   0.111995227853042   1.0000000
N2   N   0.241206669450178   0.619690194334604   0.110533436306950   1.0000000
N2   N   0.240348470218993   0.760828515803892   0.110460143446801   1.0000000
N2   N   0.383623636389349   0.903690800711774   0.110645830350215   1.0000000
N2   N   0.382218187520656   0.042742343642493   0.110656671615443   1.0000000
N2   N   0.379812963913632   0.179834936473691   0.112206663294524   1.0000000
N2   N   0.373378225404434   0.311072543452179   0.111589015625772   1.0000000
N2   N   0.387294033701135   0.626626585696970   0.110587592563252   1.0000000
N2   N   0.385239581397673   0.764546121615468   0.110113183512044   1.0000000
N2   N   0.527705243091703   0.905995226324582   0.110827703403615   1.0000000
N2   N   0.526268843791548   0.047078373708862   0.110691567445655   1.0000000
N2   N   0.524583112675815   0.187619764455954   0.110656018031711   1.0000000
N2   N   0.520790629655593   0.327112708892031   0.112494460617850   1.0000000
N2   N   0.530844337420701   0.539753106467687   0.107833152930330   1.0000000
N2   N   0.542610179514801   0.629144984006294   0.108688835080407   1.0000000
N2   N   0.530190016342777   0.764351886448699   0.110369528561150   1.0000000
N2   N   0.671580338111037   0.910517213198594   0.111009036496619   1.0000000
N2   N   0.669738131594934   0.051002342400455   0.110835964558619   1.0000000
N2   N   0.668097701206489   0.192779961431569   0.110527463721454   1.0000000
N2   N   0.665257090024245   0.335777888282791   0.110468489973027   1.0000000
N2   N   0.658106391940139   0.480192670263552   0.110131785509415   1.0000000
N2   N   0.677786760246837   0.632347355807940   0.110955505839481   1.0000000
N2   N   0.677042819589674   0.774276128153108   0.111594336513298   1.0000000
N2   N   0.815377169604574   0.911144442761098   0.110990961861290   1.0000000
N2   N   0.812979876203443   0.051868555834128   0.110711640387687   1.0000000
N2   N   0.811583367525458   0.193604957714272   0.110699243427449   1.0000000
N2   N   0.809653232814408   0.335677527018675   0.110374568400130   1.0000000
N2   N   0.806353530075291   0.477871299015700   0.110334761300638   1.0000000
N2   N   0.811068594414108   0.620920779830690   0.110825628748672   1.0000000
N2   N   0.815982071986057   0.768130033561706   0.111541712150308   1.0000000


