data_1
_audit_creation_method   'vasp2cif'
_cell_length_a    17.52789999999977
_cell_length_b    17.52789999999977
_cell_length_c    15.0
_cell_angle_alpha    90.0
_cell_angle_beta    90.0
_cell_angle_gamma    119.99999999999916

_symmetry_space_group_name_H-M    'P 1'
loop_
_atom_site_label
_atom_site_type_symbol
_atom_site_fract_x
_atom_site_fract_y
_atom_site_fract_z
_atom_site_occupancy
B2   B   0.904772753986323   0.952270800922808   0.110995391756416   1.0000000
B2   B   0.904914264055741   0.095264007619706   0.111034279935094   1.0000000
B2   B   0.904872598104216   0.238141686426555   0.111035495696328   1.0000000
B2   B   0.904716310280059   0.380998577909249   0.110982846833587   1.0000000
B2   B   0.904623508646774   0.523995331788770   0.110982866801991   1.0000000
B2   B   0.906972836587369   0.667756586998104   0.111126025565092   1.0000000
B2   B   0.904268340955283   0.808819316885067   0.111015485979726   1.0000000
B2   B   0.047659275158035   0.952534069179270   0.110990773749915   1.0000000
B2   B   0.047905890624175   0.095460712732316   0.110999847770108   1.0000000
B2   B   0.047954877515441   0.238210723259938   0.110991977720631   1.0000000
B2   B   0.047797569977725   0.380893314609399   0.111011854542995   1.0000000
B2   B   0.047498287040340   0.523693966426527   0.110998240110065   1.0000000
B2   B   0.048332320979127   0.666595107679887   0.111030628152645   1.0000000
B2   B   0.048305612953439   0.810299370948066   0.111008810803650   1.0000000
B2   B   0.190631718793021   0.952562025506032   0.110992616003120   1.0000000
B2   B   0.190999598728028   0.095755558089622   0.111011610014245   1.0000000
B2   B   0.191129339867479   0.238546047188171   0.110993506115973   1.0000000
B2   B   0.191084634611951   0.381031928814390   0.110982411945390   1.0000000
B2   B   0.190191182484598   0.523756402051072   0.111043765530599   1.0000000
B2   B   0.190619920170798   0.666658548217722   0.111054123188913   1.0000000
B2   B   0.190529450689847   0.809559835086305   0.110999605707869   1.0000000
B2   B   0.333289736707255   0.952265519890087   0.111013504673746   1.0000000
B2   B   0.333015656247419   0.094623021444679   0.111044596475044   1.0000000
B2   B   0.334570253132208   0.238448480649094   0.111048907548879   1.0000000
B2   B   0.334980870217850   0.382314778639695   0.111025738674064   1.0000000
B2   B   0.332663881288120   0.524104672939777   0.111025131369853   1.0000000
B2   B   0.333062661402632   0.666843887237804   0.111066917868030   1.0000000
B2   B   0.333297410346639   0.809611358897587   0.111057691233347   1.0000000
B2   B   0.476203623269313   0.952572768910947   0.111003106005270   1.0000000
B2   B   0.476082390630406   0.095390467336112   0.110978335008110   1.0000000
B2   B   0.474871680915864   0.237195171923595   0.111003427050776   1.0000000
B2   B   0.474960474770535   0.524189890394219   0.111105723476528   1.0000000
B2   B   0.475435231090942   0.667031867024786   0.111030180006951   1.0000000
B2   B   0.476120802798193   0.809753317222183   0.111047892627383   1.0000000
B2   B   0.619071910243638   0.952213153301672   0.111010776362606   1.0000000
B2   B   0.619035830337080   0.095502254349265   0.110984585197034   1.0000000
B2   B   0.618862401695264   0.238789763063015   0.110991944968177   1.0000000
B2   B   0.617327193644140   0.381495682213316   0.111030615168144   1.0000000
B2   B   0.616630745574803   0.664215041616482   0.111028253885583   1.0000000
B2   B   0.618844608871652   0.808632025957311   0.110987873443549   1.0000000
B2   B   0.761886308740198   0.952318455725112   0.110992255794685   1.0000000
B2   B   0.761929659615188   0.095248126301548   0.111035692662531   1.0000000
B2   B   0.761842286961002   0.238077959985368   0.111038053714850   1.0000000
B2   B   0.761755851930640   0.380841863440067   0.110983868349639   1.0000000
B2   B   0.762247179493728   0.523636606098948   0.111091362199528   1.0000000
B2   B   0.761021596422655   0.665924037018077   0.111123255431472   1.0000000
B2   B   0.761750880882465   0.809394325194925   0.110985891127368   1.0000000
C2   C   0.477448434762078   0.381229552865121   0.111191306040986   1.0000000
C2   C   0.524798498787022   0.473440046668641   0.111269336695210   1.0000000
C2   C   0.619079788934510   0.522290124950566   0.111167615272028   1.0000000
C2   C   0.809664908666046   0.618997932488270   0.111208398885801   1.0000000
N2   N   0.952445367662580   0.905005492501711   0.110977929705957   1.0000000
N2   N   0.952702609154984   0.047896395107269   0.110997977840680   1.0000000
N2   N   0.952703209506853   0.190605041112074   0.111009516956872   1.0000000
N2   N   0.952514283066096   0.333223236237590   0.110995740885765   1.0000000
N2   N   0.952361216200302   0.475873173123149   0.110947580247220   1.0000000
N2   N   0.954267368478786   0.619107871854226   0.111020723481059   1.0000000
N2   N   0.954277827811298   0.763687879476200   0.111026379913983   1.0000000
N2   N   0.096092724405974   0.905778789715071   0.110973514866924   1.0000000
N2   N   0.095947498592897   0.048360729336194   0.110980855214361   1.0000000
N2   N   0.096070645494403   0.190956065374144   0.110976003290882   1.0000000
N2   N   0.095907770959528   0.333381075112790   0.110976046308741   1.0000000
N2   N   0.095269939986511   0.475960467365783   0.111004659889786   1.0000000
N2   N   0.095968171252577   0.618894441078237   0.111009612788239   1.0000000
N2   N   0.095969209564865   0.762310310043023   0.110992078791380   1.0000000
N2   N   0.238452348851885   0.905129347141739   0.110974076093962   1.0000000
N2   N   0.238486952261926   0.048117710652705   0.111011340668993   1.0000000
N2   N   0.239739820562899   0.191836959410427   0.110997699467128   1.0000000
N2   N   0.239822617191058   0.333740561559165   0.110967719621432   1.0000000
N2   N   0.237975802599788   0.476082585751096   0.110997504835005   1.0000000
N2   N   0.238183457708410   0.618949102630729   0.111045995142290   1.0000000
N2   N   0.238397895170427   0.762034166726272   0.111022961290205   1.0000000
N2   N   0.381112522818079   0.904980324327212   0.111012152963274   1.0000000
N2   N   0.381071404727051   0.047835728729807   0.111003377255451   1.0000000
N2   N   0.380844310043742   0.190321007323254   0.111013151710201   1.0000000
N2   N   0.385582043844263   0.335389114430707   0.111078691636146   1.0000000
N2   N   0.380447571368669   0.476417110679093   0.111005973467778   1.0000000
N2   N   0.380494626680937   0.619070857518337   0.111029056242796   1.0000000
N2   N   0.380980080252998   0.762045307911482   0.111050115834803   1.0000000
N2   N   0.523804914752955   0.904964887805034   0.111008917279305   1.0000000
N2   N   0.523753867853588   0.048036860763202   0.110957698837279   1.0000000
N2   N   0.523441391562188   0.191259979509926   0.110957310577773   1.0000000
N2   N   0.521060589445499   0.333844858514248   0.111051867069944   1.0000000
N2   N   0.522283116690476   0.618718260214284   0.111011325973594   1.0000000
N2   N   0.523519144296117   0.761892523222687   0.111006266465663   1.0000000
N2   N   0.666434405040960   0.904215496081924   0.110976621395942   1.0000000
N2   N   0.666543426695857   0.047680890105090   0.110991397228623   1.0000000
N2   N   0.666264966773595   0.190905327415679   0.110995155799154   1.0000000
N2   N   0.665061767531532   0.334062393392358   0.110972119967868   1.0000000
N2   N   0.663912046297517   0.476865357203120   0.111068355238927   1.0000000
N2   N   0.662400515861613   0.613036716683969   0.111076562197424   1.0000000
N2   N   0.665639425847365   0.759832099693089   0.110967399495029   1.0000000
N2   N   0.809272848273660   0.904903344794617   0.110967783269387   1.0000000
N2   N   0.809528633230611   0.047690274545357   0.111014067296755   1.0000000
N2   N   0.809446962217637   0.190422669014841   0.111029279861249   1.0000000
N2   N   0.809048098701621   0.332797891068653   0.110989646316976   1.0000000
N2   N   0.808746781834461   0.474313812001079   0.110961220536683   1.0000000
N2   N   0.808298616576728   0.762253299947158   0.111004167639553   1.0000000


