data_1
_audit_creation_method   'vasp2cif'
_cell_length_a    14.93631414619966
_cell_length_b    14.936314146199727
_cell_length_c    13.341276283792837
_cell_angle_alpha    90.0
_cell_angle_beta    90.0
_cell_angle_gamma    119.99999999999984

_symmetry_space_group_name_H-M    'P 1'
loop_
_atom_site_label
_atom_site_type_symbol
_atom_site_fract_x
_atom_site_fract_y
_atom_site_fract_z
_atom_site_occupancy
P2   P   0.555555555555557   0.444444444444443   0.375000000000000   1.0000000
N2   N   0.111107918294388   0.055542804829547   0.124950728828055   1.0000000
N2   N   0.611126521096831   0.555586375526991   0.125240910557743   1.0000000
N2   N   0.444434876269415   0.055544847456503   0.125019303178961   1.0000000
N2   N   0.944455152543497   0.555565123730585   0.125019303178961   1.0000000
N2   N   0.777774551299592   0.055553942316464   0.124927798086772   1.0000000
N2   N   0.111118555600875   0.722225944467102   0.625043960200416   1.0000000
N2   N   0.444434876269415   0.722223362146249   0.624980696821039   1.0000000
N2   N   0.277762905936075   0.222205858234310   0.624950818094603   1.0000000
N2   N   0.777794141765690   0.722237094063925   0.624950818094603   1.0000000
N2   N   0.611109618964907   0.222205858234310   0.624950818094603   1.0000000
N2   N   0.944446057683536   0.222225448700408   0.625072201913228   1.0000000
N2   N   0.277774055532898   0.722225944467102   0.124956039799584   1.0000000
N2   N   0.111110482610581   0.222221907971955   0.124949098576575   1.0000000
N2   N   0.444444250817014   0.222221834967363   0.125232035507038   1.0000000
N2   N   0.611109618964907   0.722237094063925   0.125049181905397   1.0000000
N2   N   0.944455152543497   0.722223362146249   0.125019303178961   1.0000000
N2   N   0.777778092028045   0.222221907971955   0.124949098576575   1.0000000
N2   N   0.111115250531349   0.888884749468651   0.625038825317162   1.0000000
N2   N   0.444436165603974   0.888884749468651   0.625038825317162   1.0000000
N2   N   0.277762905936075   0.388890381035094   0.624950818094603   1.0000000
N2   N   0.611126521096831   0.388873478903169   0.624759089442257   1.0000000
N2   N   0.777778092028045   0.888889517389419   0.625050901423425   1.0000000
N2   N   0.944457195170453   0.388898446798170   0.625049271171945   1.0000000
N2   N   0.111107918294388   0.388898446798170   0.124950728828055   1.0000000
N2   N   0.277774055532898   0.888881444399125   0.124956039799584   1.0000000
N2   N   0.611101553201830   0.888892081705613   0.124950728828055   1.0000000
N2   N   0.444413624473009   0.388873478903169   0.125240910557743   1.0000000
N2   N   0.944457195170453   0.888892081705613   0.124950728828055   1.0000000
N2   N   0.777794141765690   0.388890381035094   0.125049181905397   1.0000000
N2   N   0.277776637853752   0.555565123730585   0.624980696821039   1.0000000
N2   N   0.111107918294388   0.055542804829547   0.625049271171945   1.0000000
N2   N   0.611126521096831   0.555586375526991   0.624759089442257   1.0000000
N2   N   0.444434876269415   0.055544847456503   0.624980696821039   1.0000000
N2   N   0.944455152543497   0.555565123730585   0.624980696821039   1.0000000
N2   N   0.111115250531349   0.555563834396027   0.124961174682839   1.0000000
N2   N   0.777774551299592   0.055553942316464   0.625072201913228   1.0000000
N2   N   0.277776637853752   0.055544847456503   0.125019303178961   1.0000000
N2   N   0.444444250817014   0.555555749182986   0.125232035507038   1.0000000
N2   N   0.777778165032637   0.555555749182986   0.125232035507038   1.0000000
N2   N   0.611101553201830   0.055542804829547   0.124950728828055   1.0000000
N2   N   0.444444250817014   0.555555749182986   0.624767964492962   1.0000000
N2   N   0.944446057683536   0.055553942316464   0.124927798086772   1.0000000
N2   N   0.277774055532898   0.722225944467102   0.625043960200416   1.0000000
N2   N   0.111110482610581   0.222221907971955   0.625050901423425   1.0000000
N2   N   0.444444250817014   0.222221834967363   0.624767964492962   1.0000000
N2   N   0.611109618964907   0.722237094063925   0.624950818094603   1.0000000
N2   N   0.944455152543497   0.722223362146249   0.624980696821039   1.0000000
N2   N   0.777778092028045   0.222221907971955   0.625050901423425   1.0000000
N2   N   0.111118555600875   0.722225944467102   0.124956039799584   1.0000000
N2   N   0.444434876269415   0.722223362146249   0.125019303178961   1.0000000
N2   N   0.277762905936075   0.222205858234310   0.125049181905397   1.0000000
N2   N   0.777794141765690   0.722237094063925   0.125049181905397   1.0000000
N2   N   0.611109618964907   0.222205858234310   0.125049181905397   1.0000000
N2   N   0.944446057683536   0.222225448700408   0.124927798086772   1.0000000
N2   N   0.111107918294388   0.388898446798170   0.625049271171945   1.0000000
N2   N   0.277774055532898   0.888881444399125   0.625043960200416   1.0000000
N2   N   0.611101553201830   0.888892081705613   0.625049271171945   1.0000000
N2   N   0.444413624473009   0.388873478903169   0.624759089442257   1.0000000
N2   N   0.944457195170453   0.888892081705613   0.625049271171945   1.0000000
N2   N   0.111115250531349   0.888884749468651   0.124961174682839   1.0000000
N2   N   0.777794141765690   0.388890381035094   0.624950818094603   1.0000000
N2   N   0.444436165603974   0.888884749468651   0.124961174682839   1.0000000
N2   N   0.277762905936075   0.388890381035094   0.125049181905397   1.0000000
N2   N   0.277776637853752   0.555565123730585   0.125019303178961   1.0000000
N2   N   0.611126521096831   0.388873478903169   0.125240910557743   1.0000000
N2   N   0.777778092028045   0.888889517389419   0.124949098576575   1.0000000
N2   N   0.944457195170453   0.388898446798170   0.124950728828055   1.0000000
N2   N   0.111115250531349   0.555563834396027   0.625038825317162   1.0000000
N2   N   0.277776637853752   0.055544847456503   0.624980696821039   1.0000000
N2   N   0.777778165032637   0.555555749182986   0.624767964492962   1.0000000
N2   N   0.611101553201830   0.055542804829547   0.625049271171945   1.0000000
N2   N   0.944446057683536   0.055553942316464   0.625072201913228   1.0000000
N2   N   0.054639373618190   0.110525070676684   0.375000000000000   1.0000000
N2   N   0.555870702429551   0.618793622000433   0.375000000000000   1.0000000
N2   N   0.388038520542328   0.109410374417999   0.375000000000000   1.0000000
N2   N   0.890589625582001   0.611961479457672   0.375000000000000   1.0000000
N2   N   0.722552363725158   0.110525070676684   0.375000000000000   1.0000000
N2   N   0.055554842293767   0.777779046523587   0.875000000000000   1.0000000
N2   N   0.388890870896485   0.777779046523587   0.875000000000000   1.0000000
N2   N   0.222209797615522   0.277771565474429   0.875000000000000   1.0000000
N2   N   0.722228434525571   0.777790202384478   0.875000000000000   1.0000000
N2   N   0.555554950422083   0.277780552511304   0.875000000000000   1.0000000
N2   N   0.888893506438031   0.277780544438964   0.875000000000000   1.0000000
N2   N   0.222222222222221   0.777777777777779   0.375000000000000   1.0000000
N2   N   0.054639373618190   0.277447636274842   0.375000000000000   1.0000000
N2   N   0.381206377999567   0.270410413762454   0.375000000000000   1.0000000
N2   N   0.555336625021074   0.780852064423972   0.375000000000000   1.0000000
N2   N   0.892182106069563   0.780852064423972   0.375000000000000   1.0000000
N2   N   0.723663289109461   0.276336710890539   0.375000000000000   1.0000000
N2   N   0.055555984768577   0.944444015231423   0.875000000000000   1.0000000
N2   N   0.388890870896485   0.944445157706233   0.875000000000000   1.0000000
N2   N   0.222225337276739   0.444443215763255   0.875000000000000   1.0000000
N2   N   0.555555555555557   0.444444444444443   0.875000000000000   1.0000000
N2   N   0.722219455561036   0.944446295332403   0.875000000000000   1.0000000
N2   N   0.888884545153180   0.444443215763255   0.875000000000000   1.0000000
N2   N   0.055691246088144   0.444715825509616   0.375000000000000   1.0000000
N2   N   0.221950591585556   0.943729099020622   0.375000000000000   1.0000000
N2   N   0.555284174490383   0.944308753911856   0.375000000000000   1.0000000
N2   N   0.381206377999567   0.444129297570449   0.375000000000000   1.0000000
N2   N   0.889474929323316   0.945360626381810   0.375000000000000   1.0000000
N2   N   0.729589586237546   0.444129297570449   0.375000000000000   1.0000000
N2   N   0.222220953476413   0.611109129103516   0.875000000000000   1.0000000
N2   N   0.055553704667597   0.111106493561969   0.875000000000000   1.0000000
N2   N   0.555554950422083   0.611107731244115   0.875000000000000   1.0000000
N2   N   0.388885892121155   0.111105117575653   0.875000000000000   1.0000000
N2   N   0.888894882424347   0.611114107878845   0.875000000000000   1.0000000
N2   N   0.056270900979378   0.611554825898269   0.375000000000000   1.0000000
N2   N   0.722219455561036   0.111106493561969   0.875000000000000   1.0000000
N2   N   0.219147935576028   0.107817893930437   0.375000000000000   1.0000000
N2   N   0.388038520542328   0.611961479457672   0.375000000000000   1.0000000
N2   N   0.729589586237546   0.618793622000433   0.375000000000000   1.0000000
N2   N   0.555336625021074   0.107817893930437   0.375000000000000   1.0000000
N2   N   0.388885892121155   0.611114107878845   0.875000000000000   1.0000000
N2   N   0.888888888888886   0.111111111111114   0.375000000000000   1.0000000
N2   N   0.222222222222221   0.777777777777779   0.875000000000000   1.0000000
N2   N   0.055553704667597   0.277780544438964   0.875000000000000   1.0000000
N2   N   0.388892268755886   0.277780552511304   0.875000000000000   1.0000000
N2   N   0.555556784236745   0.777774662723261   0.875000000000000   1.0000000
N2   N   0.888884545153180   0.777774662723261   0.875000000000000   1.0000000
N2   N   0.722228434525571   0.277771565474429   0.875000000000000   1.0000000
N2   N   0.056270900979378   0.778049408414444   0.375000000000000   1.0000000
N2   N   0.388445174101731   0.778049408414444   0.375000000000000   1.0000000
N2   N   0.219340088447742   0.276336710890539   0.375000000000000   1.0000000
N2   N   0.723663289109461   0.780659911552258   0.375000000000000   1.0000000
N2   N   0.555870702429551   0.270410413762454   0.375000000000000   1.0000000
N2   N   0.889474929323316   0.277447636274842   0.375000000000000   1.0000000
N2   N   0.055555984768577   0.444445302870483   0.875000000000000   1.0000000
N2   N   0.222220953476413   0.944445157706233   0.875000000000000   1.0000000
N2   N   0.555554697129517   0.944444015231423   0.875000000000000   1.0000000
N2   N   0.388892268755886   0.444445049577917   0.875000000000000   1.0000000
N2   N   0.888893506438031   0.944446295332403   0.875000000000000   1.0000000
N2   N   0.055691246088144   0.944308753911856   0.375000000000000   1.0000000
N2   N   0.722219447488696   0.444445049577917   0.875000000000000   1.0000000
N2   N   0.388445174101731   0.943729099020622   0.375000000000000   1.0000000
N2   N   0.219147935576028   0.444663374978927   0.375000000000000   1.0000000
N2   N   0.221950591585556   0.611554825898269   0.375000000000000   1.0000000
N2   N   0.722552363725158   0.945360626381810   0.375000000000000   1.0000000
N2   N   0.892182106069563   0.444663374978927   0.375000000000000   1.0000000
N2   N   0.055554842293767   0.611109129103516   0.875000000000000   1.0000000
N2   N   0.222225337276739   0.111115454846820   0.875000000000000   1.0000000
N2   N   0.722219447488696   0.611107731244115   0.875000000000000   1.0000000
N2   N   0.555556784236745   0.111115454846820   0.875000000000000   1.0000000
N2   N   0.888888888888886   0.111111111111114   0.875000000000000   1.0000000
B2   B   0.109125854417585   0.054118369702792   0.375000000000000   1.0000000
B2   B   0.622748551601912   0.578830436537153   0.375000000000000   1.0000000
B2   B   0.444168237258951   0.053916634116853   0.375000000000000   1.0000000
B2   B   0.946083365883147   0.555831762741049   0.375000000000000   1.0000000
B2   B   0.778283508024008   0.055808420678672   0.375000000000000   1.0000000
B2   B   0.110913450349483   0.722123391841406   0.875000000000000   1.0000000
B2   B   0.444534319254885   0.722418978786132   0.875000000000000   1.0000000
B2   B   0.277848720092294   0.222112158946888   0.875000000000000   1.0000000
B2   B   0.777887841053112   0.722151279907705   0.875000000000000   1.0000000
B2   B   0.610930105521265   0.222112158946888   0.875000000000000   1.0000000
B2   B   0.944544251243970   0.222421835821276   0.875000000000000   1.0000000
B2   B   0.277545132938569   0.722454867061431   0.375000000000000   1.0000000
B2   B   0.108739193482734   0.221036263408031   0.375000000000000   1.0000000
B2   B   0.442802558208362   0.218938449750060   0.375000000000000   1.0000000
B2   B   0.612458953855318   0.729051650645547   0.375000000000000   1.0000000
B2   B   0.946083365883147   0.723584936475434   0.375000000000000   1.0000000
B2   B   0.778963736591969   0.221036263408031   0.375000000000000   1.0000000
B2   B   0.111210769017572   0.888789230982428   0.875000000000000   1.0000000
B2   B   0.444245128631528   0.888789230982428   0.875000000000000   1.0000000
B2   B   0.277848720092294   0.389069894478735   0.875000000000000   1.0000000
B2   B   0.611196472547300   0.388803527452701   0.875000000000000   1.0000000
B2   B   0.777882049660713   0.889097432654753   0.875000000000000   1.0000000
B2   B   0.944248121095398   0.388779869986819   0.875000000000000   1.0000000
B2   B   0.109125854417585   0.388340818048122   0.375000000000000   1.0000000
B2   B   0.277545132938569   0.888423599210467   0.375000000000000   1.0000000
B2   B   0.611659181951878   0.890874145582415   0.375000000000000   1.0000000
B2   B   0.421169563462847   0.377251448398088   0.375000000000000   1.0000000
B2   B   0.945881630297208   0.890874145582415   0.375000000000000   1.0000000
B2   B   0.783259363456900   0.387541046144681   0.375000000000000   1.0000000
B2   B   0.277581021213868   0.555465680745115   0.875000000000000   1.0000000
B2   B   0.111198415558092   0.055751878904602   0.875000000000000   1.0000000
B2   B   0.611196472547300   0.555726278427928   0.875000000000000   1.0000000
B2   B   0.444534319254885   0.055448673802088   0.875000000000000   1.0000000
B2   B   0.944551326197912   0.555465680745115   0.875000000000000   1.0000000
B2   B   0.111182669666544   0.555698672666417   0.375000000000000   1.0000000
B2   B   0.777578164178724   0.055455748756030   0.875000000000000   1.0000000
B2   B   0.276415063524567   0.053916634116853   0.375000000000000   1.0000000
B2   B   0.442802558208362   0.557197441791638   0.375000000000000   1.0000000
B2   B   0.781061550249940   0.557197441791638   0.375000000000000   1.0000000
B2   B   0.611659181951878   0.054118369702792   0.375000000000000   1.0000000
B2   B   0.444532404173523   0.555467595826477   0.875000000000000   1.0000000
B2   B   0.944191579321328   0.055808420678672   0.375000000000000   1.0000000
B2   B   0.277876608158594   0.722123391841406   0.875000000000000   1.0000000
B2   B   0.110902567345247   0.222117950339288   0.875000000000000   1.0000000
B2   B   0.444532404173523   0.222398141680381   0.875000000000000   1.0000000
B2   B   0.610930105521265   0.722151279907705   0.875000000000000   1.0000000
B2   B   0.944551326197912   0.722418978786132   0.875000000000000   1.0000000
B2   B   0.777882049660713   0.222117950339288   0.875000000000000   1.0000000
B2   B   0.111576400789533   0.722454867061431   0.375000000000000   1.0000000
B2   B   0.444168237258951   0.723584936475434   0.375000000000000   1.0000000
B2   B   0.270948349354454   0.216740636543101   0.375000000000000   1.0000000
B2   B   0.783259363456900   0.729051650645547   0.375000000000000   1.0000000
B2   B   0.612458953855318   0.216740636543101   0.375000000000000   1.0000000
B2   B   0.944191579321328   0.221716491975992   0.375000000000000   1.0000000
B2   B   0.111198415558092   0.388779869986819   0.875000000000000   1.0000000
B2   B   0.277876608158594   0.889086549650517   0.875000000000000   1.0000000
B2   B   0.611220130013181   0.888801584441907   0.875000000000000   1.0000000
B2   B   0.444273721572072   0.388803527452701   0.875000000000000   1.0000000
B2   B   0.944248121095398   0.888801584441907   0.875000000000000   1.0000000
B2   B   0.111182669666544   0.888817330333456   0.375000000000000   1.0000000
B2   B   0.777887841053112   0.389069894478735   0.875000000000000   1.0000000
B2   B   0.444301327333583   0.888817330333456   0.375000000000000   1.0000000
B2   B   0.270948349354454   0.387541046144681   0.375000000000000   1.0000000
B2   B   0.276415063524567   0.555831762741049   0.375000000000000   1.0000000
B2   B   0.622748551601912   0.377251448398088   0.375000000000000   1.0000000
B2   B   0.778963736591969   0.891260806517267   0.375000000000000   1.0000000
B2   B   0.945881630297208   0.388340818048122   0.375000000000000   1.0000000
B2   B   0.111210769017572   0.555754871368472   0.875000000000000   1.0000000
B2   B   0.277581021213868   0.055448673802088   0.875000000000000   1.0000000
B2   B   0.777601858319619   0.555467595826477   0.875000000000000   1.0000000
B2   B   0.611220130013181   0.055751878904602   0.875000000000000   1.0000000
B2   B   0.944544251243970   0.055455748756030   0.875000000000000   1.0000000
B2   B   0.055513700947796   0.111078335057721   0.125045176228523   1.0000000
B2   B   0.555531989323486   0.611272616546647   0.124906790093901   1.0000000
B2   B   0.388803715219220   0.110940763771783   0.125095262717232   1.0000000
B2   B   0.889059236228217   0.611196284780780   0.125095262717232   1.0000000
B2   B   0.722231300776590   0.111078335057721   0.125045176228523   1.0000000
B2   B   0.055626450467963   0.777806935644723   0.624948774770227   1.0000000
B2   B   0.388847151843425   0.777806935644723   0.624948774770227   1.0000000
B2   B   0.222099308842367   0.277716321087852   0.624961234938549   1.0000000
B2   B   0.722283678912149   0.777900691157632   0.624961234938549   1.0000000
B2   B   0.555531989323486   0.277592706110174   0.625093209906099   1.0000000
B2   B   0.888921664942279   0.277768699223410   0.624954823771477   1.0000000
B2   B   0.222222222222221   0.777777777777779   0.125106706976594   1.0000000
B2   B   0.055513700947796   0.277768699223410   0.125045176228523   1.0000000
B2   B   0.388727383453353   0.277592706110174   0.124906790093901   1.0000000
B2   B   0.555533466543959   0.777870066372669   0.125028105247154   1.0000000
B2   B   0.889003266495374   0.777870066372669   0.125028105247154   1.0000000
B2   B   0.722283678912149   0.277716321087852   0.125038765061451   1.0000000
B2   B   0.055566083730001   0.944433916269999   0.624898347764568   1.0000000
B2   B   0.388847151843425   0.944373549532037   0.624948774770227   1.0000000
B2   B   0.222129933627331   0.444466533456041   0.624971894752846   1.0000000
B2   B   0.555555555555557   0.444444444444443   0.625333657716653   1.0000000
B2   B   0.722231300776590   0.944486299052205   0.624954823771477   1.0000000
B2   B   0.889003266495374   0.444466533456041   0.624971894752846   1.0000000
B2   B   0.055566083730001   0.444465500793331   0.125101652235432   1.0000000
B2   B   0.222193064355277   0.944373549532037   0.125051225229772   1.0000000
B2   B   0.555534499206669   0.944433916269999   0.125101652235432   1.0000000
B2   B   0.388727383453353   0.444468010676514   0.124906790093901   1.0000000
B2   B   0.888921664942279   0.944486299052205   0.125045176228523   1.0000000
B2   B   0.722407293889826   0.444468010676514   0.124906790093901   1.0000000
B2   B   0.222193064355277   0.611152848156576   0.624948774770227   1.0000000
B2   B   0.055513700947796   0.111078335057721   0.624954823771477   1.0000000
B2   B   0.555531989323486   0.611272616546647   0.625093209906099   1.0000000
B2   B   0.388803715219220   0.110940763771783   0.624904737282767   1.0000000
B2   B   0.889059236228217   0.611196284780780   0.624904737282767   1.0000000
B2   B   0.055626450467963   0.611152848156576   0.125051225229772   1.0000000
B2   B   0.722231300776590   0.111078335057721   0.624954823771477   1.0000000
B2   B   0.222129933627331   0.110996733504626   0.125028105247154   1.0000000
B2   B   0.388803715219220   0.611196284780780   0.125095262717232   1.0000000
B2   B   0.722407293889826   0.611272616546647   0.124906790093901   1.0000000
B2   B   0.555533466543959   0.110996733504626   0.125028105247154   1.0000000
B2   B   0.388803715219220   0.611196284780780   0.624904737282767   1.0000000
B2   B   0.888888888888886   0.111111111111114   0.125115827566857   1.0000000
B2   B   0.222222222222221   0.777777777777779   0.624893293023406   1.0000000
B2   B   0.055513700947796   0.277768699223410   0.624954823771477   1.0000000
B2   B   0.388727383453353   0.277592706110174   0.625093209906099   1.0000000
B2   B   0.555533466543959   0.777870066372669   0.624971894752846   1.0000000
B2   B   0.889003266495374   0.777870066372669   0.624971894752846   1.0000000
B2   B   0.722283678912149   0.277716321087852   0.624961234938549   1.0000000
B2   B   0.055626450467963   0.777806935644723   0.125051225229772   1.0000000
B2   B   0.388847151843425   0.777806935644723   0.125051225229772   1.0000000
B2   B   0.222099308842367   0.277716321087852   0.125038765061451   1.0000000
B2   B   0.722283678912149   0.777900691157632   0.125038765061451   1.0000000
B2   B   0.555531989323486   0.277592706110174   0.124906790093901   1.0000000
B2   B   0.888921664942279   0.277768699223410   0.125045176228523   1.0000000
B2   B   0.055566083730001   0.444465500793331   0.624898347764568   1.0000000
B2   B   0.222193064355277   0.944373549532037   0.624948774770227   1.0000000
B2   B   0.555534499206669   0.944433916269999   0.624898347764568   1.0000000
B2   B   0.388727383453353   0.444468010676514   0.625093209906099   1.0000000
B2   B   0.888921664942279   0.944486299052205   0.624954823771477   1.0000000
B2   B   0.055566083730001   0.944433916269999   0.125101652235432   1.0000000
B2   B   0.722407293889826   0.444468010676514   0.625093209906099   1.0000000
B2   B   0.388847151843425   0.944373549532037   0.125051225229772   1.0000000
B2   B   0.222129933627331   0.444466533456041   0.125028105247154   1.0000000
B2   B   0.222193064355277   0.611152848156576   0.125051225229772   1.0000000
B2   B   0.555555555555557   0.444444444444443   0.124666342283347   1.0000000
B2   B   0.722231300776590   0.944486299052205   0.125045176228523   1.0000000
B2   B   0.889003266495374   0.444466533456041   0.125028105247154   1.0000000
B2   B   0.055626450467963   0.611152848156576   0.624948774770227   1.0000000
B2   B   0.222129933627331   0.110996733504626   0.624971894752846   1.0000000
B2   B   0.722407293889826   0.611272616546647   0.625093209906099   1.0000000
B2   B   0.555533466543959   0.110996733504626   0.624971894752846   1.0000000
B2   B   0.888888888888886   0.111111111111114   0.624884172433143   1.0000000


