data_1
_audit_creation_method   'vasp2cif'
_cell_length_a    17.52789999999977
_cell_length_b    17.52789999999977
_cell_length_c    15.0
_cell_angle_alpha    90.0
_cell_angle_beta    90.0
_cell_angle_gamma    119.99999999999916

_symmetry_space_group_name_H-M    'P 1'
loop_
_atom_site_label
_atom_site_type_symbol
_atom_site_fract_x
_atom_site_fract_y
_atom_site_fract_z
_atom_site_occupancy
Ge2   Ge   0.408990971950138   0.478965830183021   0.110322410951604   1.0000000
B2   B   0.908974425242798   0.955395063209534   0.110675033753315   1.0000000
B2   B   0.908128337323609   0.098188816918394   0.110752088471826   1.0000000
B2   B   0.907321796782386   0.240663804071241   0.110782489332020   1.0000000
B2   B   0.905639937520439   0.382509181783680   0.110711227314631   1.0000000
B2   B   0.902862831079762   0.524069203098185   0.110705638290996   1.0000000
B2   B   0.905443855241761   0.666561237048990   0.110759622198770   1.0000000
B2   B   0.908570813968571   0.811627331433320   0.110686898933757   1.0000000
B2   B   0.048875774230969   0.950568584854891   0.110685063719020   1.0000000
B2   B   0.048904043070877   0.094143405164609   0.110740651347493   1.0000000
B2   B   0.050312303163153   0.239162276749017   0.110777226022947   1.0000000
B2   B   0.050274219290192   0.382120093521706   0.110717603611947   1.0000000
B2   B   0.048280186307916   0.523864645449029   0.110688319343089   1.0000000
B2   B   0.048274667348987   0.665488725393209   0.110717066860904   1.0000000
B2   B   0.048626652731558   0.807702837066264   0.110720393188848   1.0000000
B2   B   0.190630830175690   0.948048842157183   0.110719331904241   1.0000000
B2   B   0.188731491311438   0.088501676561527   0.110693111199697   1.0000000
B2   B   0.188981777209930   0.232119850444642   0.110760068519776   1.0000000
B2   B   0.194718755219091   0.381021969594550   0.110716092724863   1.0000000
B2   B   0.193069556274667   0.524353511351163   0.110742681908513   1.0000000
B2   B   0.192355012958660   0.665996958010662   0.110724135693366   1.0000000
B2   B   0.191557583767160   0.807125932803263   0.110712370869496   1.0000000
B2   B   0.334471479777536   0.948850413572992   0.110786868132970   1.0000000
B2   B   0.332652856978358   0.087097480197620   0.110732382704944   1.0000000
B2   B   0.328145444159040   0.221386539316132   0.110787172735508   1.0000000
B2   B   0.328963544044335   0.359041626462728   0.110874357699731   1.0000000
B2   B   0.337885857156267   0.533529046812069   0.110886695903448   1.0000000
B2   B   0.337361138228630   0.670553412988724   0.110925342160619   1.0000000
B2   B   0.335790184127408   0.809459993983521   0.110750733963012   1.0000000
B2   B   0.478933610201132   0.952035153969255   0.110774630418313   1.0000000
B2   B   0.477537680710537   0.092431544370370   0.110780813315376   1.0000000
B2   B   0.475071893354173   0.231292882429090   0.110706694180252   1.0000000
B2   B   0.466883912561000   0.363254889864772   0.110915066178301   1.0000000
B2   B   0.483780558592939   0.668866465749658   0.110955134812499   1.0000000
B2   B   0.480674363795551   0.810966572864030   0.110824137546017   1.0000000
B2   B   0.622944659630173   0.956163251353463   0.110728386685235   1.0000000
B2   B   0.621595051800237   0.097390869926369   0.110726227338938   1.0000000
B2   B   0.619927938701103   0.239524225982015   0.110743209546963   1.0000000
B2   B   0.616318103583834   0.383011477742775   0.110722395346334   1.0000000
B2   B   0.613273627228365   0.538161133991978   0.110765064986052   1.0000000
B2   B   0.633075566099611   0.681515993129349   0.110667989254941   1.0000000
B2   B   0.625213144318133   0.816199362701924   0.110725817917542   1.0000000
B2   B   0.766612850599669   0.957322859225983   0.110687327650487   1.0000000
B2   B   0.765148484500820   0.098860127229039   0.110730123106566   1.0000000
B2   B   0.763648573092293   0.240767718069974   0.110721112006637   1.0000000
B2   B   0.761010325932961   0.382883994748607   0.110720430262265   1.0000000
B2   B   0.756133439748382   0.525310735384413   0.110713132462748   1.0000000
B2   B   0.768088373719186   0.672670882427684   0.110611432169736   1.0000000
B2   B   0.769660296213715   0.817035768269339   0.110602043459835   1.0000000
N2   N   0.954999373515262   0.905978222418689   0.110672802532386   1.0000000
N2   N   0.954982722729854   0.049615482962229   0.110713112762113   1.0000000
N2   N   0.955303167502301   0.193128377725949   0.110774214784895   1.0000000
N2   N   0.954622938195646   0.335555573241112   0.110718575932126   1.0000000
N2   N   0.952278036840234   0.477265101705596   0.110679484186889   1.0000000
N2   N   0.952711047865942   0.618846930780074   0.110723939288801   1.0000000
N2   N   0.953855473006018   0.761686713165018   0.110731698261832   1.0000000
N2   N   0.095925572558043   0.902292511210767   0.110682914344012   1.0000000
N2   N   0.094940674855065   0.044626781772198   0.110665371182957   1.0000000
N2   N   0.095333708799897   0.188562011365551   0.110763031690477   1.0000000
N2   N   0.098862702998672   0.334659342557489   0.110717029211791   1.0000000
N2   N   0.097355053986454   0.477113956357846   0.110674015400685   1.0000000
N2   N   0.096676613766649   0.618667759326511   0.110682901669536   1.0000000
N2   N   0.096306717161530   0.760244270050770   0.110703773226668   1.0000000
N2   N   0.239199095987392   0.901656743914119   0.110725094368292   1.0000000
N2   N   0.237674851481114   0.042109891153437   0.110688623497259   1.0000000
N2   N   0.234715228829360   0.181865515574418   0.110722960083179   1.0000000
N2   N   0.236874366411916   0.326711276837944   0.110733800546906   1.0000000
N2   N   0.242301644718320   0.477684644282119   0.110746306980513   1.0000000
N2   N   0.241364039387355   0.619831511320143   0.110787463668895   1.0000000
N2   N   0.240226536069190   0.760869638633169   0.110692482698589   1.0000000
N2   N   0.383558960112622   0.903715991213633   0.110754993002026   1.0000000
N2   N   0.382247868675964   0.042893753114737   0.110772814719066   1.0000000
N2   N   0.380048201639431   0.180292926940628   0.110693672383664   1.0000000
N2   N   0.374772598433583   0.312634484394393   0.110932826028589   1.0000000
N2   N   0.387362301149651   0.626493911171860   0.111028771310185   1.0000000
N2   N   0.385105574856338   0.764451758894859   0.110818106389805   1.0000000
N2   N   0.527737770339717   0.906105779988089   0.110746174105062   1.0000000
N2   N   0.526411444058736   0.047065023008033   0.110754349757726   1.0000000
N2   N   0.524827796928374   0.187436200642322   0.110734582531250   1.0000000
N2   N   0.521463379665710   0.326653332197490   0.110698138909164   1.0000000
N2   N   0.527279482207553   0.539481951862785   0.110976336187773   1.0000000
N2   N   0.541172191727181   0.629249328547034   0.110889242502568   1.0000000
N2   N   0.530086845625448   0.764724403456466   0.110826122012150   1.0000000
N2   N   0.671662682329662   0.910462675145461   0.110688839628987   1.0000000
N2   N   0.670030715641010   0.051048345409197   0.110693909979212   1.0000000
N2   N   0.668449439067738   0.192793970976976   0.110707992898326   1.0000000
N2   N   0.665600769253353   0.335703307178280   0.110713903975398   1.0000000
N2   N   0.657201285095622   0.479712675514355   0.110724512422482   1.0000000
N2   N   0.675494848766889   0.630446427351622   0.110579824901635   1.0000000
N2   N   0.676307545116294   0.773502808830947   0.110592074574465   1.0000000
N2   N   0.815162608981849   0.910725813026423   0.110629869288662   1.0000000
N2   N   0.813326505476101   0.051904109756546   0.110714045876536   1.0000000
N2   N   0.812099427670491   0.193780478166137   0.110730958977569   1.0000000
N2   N   0.810056318516964   0.335820960404318   0.110695951889431   1.0000000
N2   N   0.806182435766433   0.477859462555922   0.110696222082735   1.0000000
N2   N   0.810230927526065   0.620546305218009   0.110695673384933   1.0000000
N2   N   0.814932709590808   0.767139358156282   0.110584376063412   1.0000000


