data_1
_audit_creation_method   'vasp2cif'
_cell_length_a    14.93631414619966
_cell_length_b    14.936314146199727
_cell_length_c    13.341276283792837
_cell_angle_alpha    90.0
_cell_angle_beta    90.0
_cell_angle_gamma    119.99999999999984

_symmetry_space_group_name_H-M    'P 1'
loop_
_atom_site_label
_atom_site_type_symbol
_atom_site_fract_x
_atom_site_fract_y
_atom_site_fract_z
_atom_site_occupancy
N2   N   0.111118605675654   0.055548405447967   0.125119219291070   1.0000000
N2   N   0.611103515697551   0.555540364728431   0.125604214536793   1.0000000
N2   N   0.444433720292832   0.055544016525417   0.125150216333300   1.0000000
N2   N   0.944455983474583   0.555566279707169   0.125150216333300   1.0000000
N2   N   0.777768623337670   0.055550978335503   0.125114751851961   1.0000000
N2   N   0.111117341363935   0.722225337348632   0.624893423234089   1.0000000
N2   N   0.444433720292832   0.722223037100750   0.624849783666700   1.0000000
N2   N   0.277792954800162   0.222221427826668   0.624775367774475   1.0000000
N2   N   0.777778572173332   0.722207045199838   0.624775367774475   1.0000000
N2   N   0.611095139693178   0.222221427826668   0.624775367774475   1.0000000
N2   N   0.944449021664497   0.222231376662331   0.624885248148039   1.0000000
N2   N   0.277774662651368   0.722225337348632   0.125106576765910   1.0000000
N2   N   0.111127793965212   0.222230563649270   0.125141152917667   1.0000000
N2   N   0.444442343475758   0.222218020284852   0.125346341639330   1.0000000
N2   N   0.611095139693178   0.722207045199838   0.125224632225525   1.0000000
N2   N   0.944455983474583   0.722223037100750   0.125150216333300   1.0000000
N2   N   0.777769436350730   0.222230563649270   0.125141152917667   1.0000000
N2   N   0.111116463703077   0.888883536296923   0.624886828349368   1.0000000
N2   N   0.444433739260517   0.888883536296923   0.624886828349368   1.0000000
N2   N   0.277792954800162   0.388904860306823   0.624775367774475   1.0000000
N2   N   0.611103515697551   0.388896484302449   0.624395785463208   1.0000000
N2   N   0.777769436350730   0.888872206034788   0.624858847082333   1.0000000
N2   N   0.944451594552033   0.388903533561016   0.624880780708931   1.0000000
N2   N   0.111118605675654   0.388903533561016   0.125119219291070   1.0000000
N2   N   0.277774662651368   0.888882658636065   0.125106576765910   1.0000000
N2   N   0.611096466438984   0.888881394324346   0.125119219291070   1.0000000
N2   N   0.444459635271569   0.388896484302449   0.125604214536793   1.0000000
N2   N   0.944451594552033   0.888881394324346   0.125119219291070   1.0000000
N2   N   0.777778572173332   0.388904860306823   0.125224632225525   1.0000000
N2   N   0.277776962899249   0.555566279707169   0.624849783666700   1.0000000
N2   N   0.111118605675654   0.055548405447967   0.624880780708931   1.0000000
N2   N   0.611103515697551   0.555540364728431   0.624395785463208   1.0000000
N2   N   0.444433720292832   0.055544016525417   0.624849783666700   1.0000000
N2   N   0.944455983474583   0.555566279707169   0.624849783666700   1.0000000
N2   N   0.111116463703077   0.555566260739483   0.125113171650632   1.0000000
N2   N   0.777768623337670   0.055550978335503   0.624885248148039   1.0000000
N2   N   0.277776962899249   0.055544016525417   0.125150216333300   1.0000000
N2   N   0.444442343475758   0.555557656524242   0.125346341639330   1.0000000
N2   N   0.777781979715148   0.555557656524242   0.125346341639330   1.0000000
N2   N   0.611096466438984   0.055548405447967   0.125119219291070   1.0000000
N2   N   0.444442343475758   0.555557656524242   0.624653658360670   1.0000000
N2   N   0.944449021664497   0.055550978335503   0.125114751851961   1.0000000
N2   N   0.277774662651368   0.722225337348632   0.624893423234089   1.0000000
N2   N   0.111127793965212   0.222230563649270   0.624858847082333   1.0000000
N2   N   0.444442343475758   0.222218020284852   0.624653658360670   1.0000000
N2   N   0.611095139693178   0.722207045199838   0.624775367774475   1.0000000
N2   N   0.944455983474583   0.722223037100750   0.624849783666700   1.0000000
N2   N   0.777769436350730   0.222230563649270   0.624858847082333   1.0000000
N2   N   0.111117341363935   0.722225337348632   0.125106576765910   1.0000000
N2   N   0.444433720292832   0.722223037100750   0.125150216333300   1.0000000
N2   N   0.277792954800162   0.222221427826668   0.125224632225525   1.0000000
N2   N   0.777778572173332   0.722207045199838   0.125224632225525   1.0000000
N2   N   0.611095139693178   0.222221427826668   0.125224632225525   1.0000000
N2   N   0.944449021664497   0.222231376662331   0.125114751851961   1.0000000
N2   N   0.111118605675654   0.388903533561016   0.624880780708931   1.0000000
N2   N   0.277774662651368   0.888882658636065   0.624893423234089   1.0000000
N2   N   0.611096466438984   0.888881394324346   0.624880780708931   1.0000000
N2   N   0.444459635271569   0.388896484302449   0.624395785463208   1.0000000
N2   N   0.944451594552033   0.888881394324346   0.624880780708931   1.0000000
N2   N   0.111116463703077   0.888883536296923   0.125113171650632   1.0000000
N2   N   0.777778572173332   0.388904860306823   0.624775367774475   1.0000000
N2   N   0.444433739260517   0.888883536296923   0.125113171650632   1.0000000
N2   N   0.277792954800162   0.388904860306823   0.125224632225525   1.0000000
N2   N   0.277776962899249   0.555566279707169   0.125150216333300   1.0000000
N2   N   0.611103515697551   0.388896484302449   0.125604214536793   1.0000000
N2   N   0.777769436350730   0.888872206034788   0.125141152917667   1.0000000
N2   N   0.944451594552033   0.388903533561016   0.125119219291070   1.0000000
N2   N   0.111116463703077   0.555566260739483   0.624886828349368   1.0000000
N2   N   0.277776962899249   0.055544016525417   0.624849783666700   1.0000000
N2   N   0.777781979715148   0.555557656524242   0.624653658360670   1.0000000
N2   N   0.611096466438984   0.055548405447967   0.624880780708931   1.0000000
N2   N   0.944449021664497   0.055550978335503   0.624885248148039   1.0000000
N2   N   0.055792758199167   0.111294203430400   0.375000000000000   1.0000000
N2   N   0.555245103730559   0.608155301595419   0.375000000000000   1.0000000
N2   N   0.389217587466250   0.111768508265843   0.375000000000000   1.0000000
N2   N   0.888231491734156   0.610782412533750   0.375000000000000   1.0000000
N2   N   0.722168111897897   0.111294203430400   0.375000000000000   1.0000000
N2   N   0.055550678548355   0.777778255562999   0.875000000000000   1.0000000
N2   N   0.388894243681308   0.777778255562999   0.875000000000000   1.0000000
N2   N   0.222220077746780   0.277776705540058   0.875000000000000   1.0000000
N2   N   0.722223294459942   0.777779922253220   0.875000000000000   1.0000000
N2   N   0.555557735020610   0.277781304457026   0.875000000000000   1.0000000
N2   N   0.888889430992749   0.277775907352675   0.875000000000000   1.0000000
N2   N   0.222222222222221   0.777777777777779   0.375000000000000   1.0000000
N2   N   0.055792758199167   0.277831888102103   0.375000000000000   1.0000000
N2   N   0.391844698404581   0.280423135468476   0.375000000000000   1.0000000
N2   N   0.555662584304138   0.776867495099354   0.375000000000000   1.0000000
N2   N   0.887871577461881   0.776867495099354   0.375000000000000   1.0000000
N2   N   0.721783792342581   0.278216207657419   0.375000000000000   1.0000000
N2   N   0.055553359150271   0.944446640849730   0.875000000000000   1.0000000
N2   N   0.388894243681308   0.944449321451645   0.875000000000000   1.0000000
N2   N   0.222220080282396   0.444439945101916   0.875000000000000   1.0000000
N2   N   0.555555555555557   0.444444444444443   0.875000000000000   1.0000000
N2   N   0.722224092647325   0.944446856973410   0.875000000000000   1.0000000
N2   N   0.888886531486184   0.444439945101916   0.875000000000000   1.0000000
N2   N   0.055488771775867   0.444310876885062   0.375000000000000   1.0000000
N2   N   0.222315308453103   0.944738434365287   0.375000000000000   1.0000000
N2   N   0.555689123114938   0.944511228224133   0.375000000000000   1.0000000
N2   N   0.391844698404581   0.444754896269442   0.375000000000000   1.0000000
N2   N   0.888705796569600   0.944207241800833   0.375000000000000   1.0000000
N2   N   0.719576864531525   0.444754896269442   0.375000000000000   1.0000000
N2   N   0.222221744437001   0.611105756318692   0.875000000000000   1.0000000
N2   N   0.055553143026590   0.111110569007251   0.875000000000000   1.0000000
N2   N   0.555557735020610   0.611109763896919   0.875000000000000   1.0000000
N2   N   0.388892477369010   0.111118288071362   0.875000000000000   1.0000000
N2   N   0.888881711928637   0.611107522630990   0.875000000000000   1.0000000
N2   N   0.055261565634713   0.610910207421152   0.375000000000000   1.0000000
N2   N   0.722224092647325   0.111110569007251   0.875000000000000   1.0000000
N2   N   0.223132504900646   0.112128422538120   0.375000000000000   1.0000000
N2   N   0.389217587466250   0.610782412533750   0.375000000000000   1.0000000
N2   N   0.719576864531525   0.608155301595419   0.375000000000000   1.0000000
N2   N   0.555662584304138   0.112128422538120   0.375000000000000   1.0000000
N2   N   0.388892477369010   0.611107522630990   0.875000000000000   1.0000000
N2   N   0.888888888888886   0.111111111111114   0.375000000000000   1.0000000
N2   N   0.222222222222221   0.777777777777779   0.875000000000000   1.0000000
N2   N   0.055553143026590   0.277775907352675   0.875000000000000   1.0000000
N2   N   0.388890236103081   0.277781304457026   0.875000000000000   1.0000000
N2   N   0.555560054898084   0.777779919717604   0.875000000000000   1.0000000
N2   N   0.888886531486184   0.777779919717604   0.875000000000000   1.0000000
N2   N   0.722223294459942   0.277776705540058   0.875000000000000   1.0000000
N2   N   0.055261565634713   0.777684691546897   0.375000000000000   1.0000000
N2   N   0.389089792578848   0.777684691546897   0.375000000000000   1.0000000
N2   N   0.223099081981502   0.278216207657419   0.375000000000000   1.0000000
N2   N   0.721783792342581   0.776900918018498   0.375000000000000   1.0000000
N2   N   0.555245103730559   0.280423135468476   0.375000000000000   1.0000000
N2   N   0.888705796569600   0.277831888102103   0.375000000000000   1.0000000
N2   N   0.055553359150271   0.444440051633871   0.875000000000000   1.0000000
N2   N   0.222221744437001   0.944449321451645   0.875000000000000   1.0000000
N2   N   0.555559948366129   0.944446640849730   0.875000000000000   1.0000000
N2   N   0.388890236103081   0.444442264979390   0.875000000000000   1.0000000
N2   N   0.888889430992749   0.944446856973410   0.875000000000000   1.0000000
N2   N   0.055488771775867   0.944511228224133   0.375000000000000   1.0000000
N2   N   0.722218695542974   0.444442264979390   0.875000000000000   1.0000000
N2   N   0.389089792578848   0.944738434365287   0.375000000000000   1.0000000
N2   N   0.223132504900646   0.444337415695861   0.375000000000000   1.0000000
N2   N   0.222315308453103   0.610910207421152   0.375000000000000   1.0000000
N2   N   0.722168111897897   0.944207241800833   0.375000000000000   1.0000000
N2   N   0.887871577461881   0.444337415695861   0.375000000000000   1.0000000
N2   N   0.055550678548355   0.611105756318692   0.875000000000000   1.0000000
N2   N   0.222220080282396   0.111113468513816   0.875000000000000   1.0000000
N2   N   0.722218695542974   0.611109763896919   0.875000000000000   1.0000000
N2   N   0.555560054898084   0.111113468513816   0.875000000000000   1.0000000
N2   N   0.888888888888886   0.111111111111114   0.875000000000000   1.0000000
B2   B   0.111297868821260   0.055826351825096   0.375000000000000   1.0000000
B2   B   0.610634779251404   0.554602891836137   0.375000000000000   1.0000000
B2   B   0.444587280309052   0.055637590877786   0.375000000000000   1.0000000
B2   B   0.944362409122214   0.555412719690948   0.375000000000000   1.0000000
B2   B   0.777787654488763   0.055560493911049   0.375000000000000   1.0000000
B2   B   0.111116604658394   0.722224968995861   0.875000000000000   1.0000000
B2   B   0.444444899518262   0.722241572424721   0.875000000000000   1.0000000
B2   B   0.277738066687505   0.222196327927516   0.875000000000000   1.0000000
B2   B   0.777803672072484   0.722261933312495   0.875000000000000   1.0000000
B2   B   0.611124927906682   0.222196327927516   0.875000000000000   1.0000000
B2   B   0.944439455793176   0.222212244919687   0.875000000000000   1.0000000
B2   B   0.277816947951620   0.722183052048380   0.375000000000000   1.0000000
B2   B   0.111129030973682   0.222231182153505   0.375000000000000   1.0000000
B2   B   0.444173517335863   0.221680368005062   0.375000000000000   1.0000000
B2   B   0.611362802701523   0.721709976224399   0.375000000000000   1.0000000
B2   B   0.944362409122214   0.722283022764602   0.375000000000000   1.0000000
B2   B   0.777768817846495   0.222231182153505   0.375000000000000   1.0000000
B2   B   0.111108783032981   0.888891216967019   0.875000000000000   1.0000000
B2   B   0.444449100600710   0.888891216967019   0.875000000000000   1.0000000
B2   B   0.277738066687505   0.388875072093318   0.875000000000000   1.0000000
B2   B   0.611125468266862   0.388874531733138   0.875000000000000   1.0000000
B2   B   0.777793815641090   0.888920964615510   0.875000000000000   1.0000000
B2   B   0.944453669648535   0.388877115922767   0.875000000000000   1.0000000
B2   B   0.111297868821260   0.388804850329492   0.375000000000000   1.0000000
B2   B   0.277816947951620   0.888967229236569   0.375000000000000   1.0000000
B2   B   0.611195149670507   0.888702131178740   0.375000000000000   1.0000000
B2   B   0.445397108163863   0.389365220748596   0.375000000000000   1.0000000
B2   B   0.944173648174904   0.888702131178740   0.375000000000000   1.0000000
B2   B   0.777013840189548   0.388637197298477   0.375000000000000   1.0000000
B2   B   0.277758427575279   0.555555100481738   0.875000000000000   1.0000000
B2   B   0.111090112940903   0.055546330351465   0.875000000000000   1.0000000
B2   B   0.611125468266862   0.555584269867052   0.875000000000000   1.0000000
B2   B   0.444444899518262   0.055536660426877   0.875000000000000   1.0000000
B2   B   0.944463339573124   0.555555100481738   0.875000000000000   1.0000000
B2   B   0.111038121263766   0.555409575860861   0.375000000000000   1.0000000
B2   B   0.777787755080313   0.055560544206824   0.875000000000000   1.0000000
B2   B   0.277716977235398   0.055637590877786   0.375000000000000   1.0000000
B2   B   0.444173517335863   0.555826482664137   0.375000000000000   1.0000000
B2   B   0.778319631994938   0.555826482664137   0.375000000000000   1.0000000
B2   B   0.611195149670507   0.055826351825096   0.375000000000000   1.0000000
B2   B   0.444430234821463   0.555569765178537   0.875000000000000   1.0000000
B2   B   0.944439506088951   0.055560493911049   0.375000000000000   1.0000000
B2   B   0.277775031004139   0.722224968995861   0.875000000000000   1.0000000
B2   B   0.111079035384491   0.222206184358910   0.875000000000000   1.0000000
B2   B   0.444430234821463   0.222193802976262   0.875000000000000   1.0000000
B2   B   0.611124927906682   0.722261933312495   0.875000000000000   1.0000000
B2   B   0.944463339573124   0.722241572424721   0.875000000000000   1.0000000
B2   B   0.777793815641090   0.222206184358910   0.875000000000000   1.0000000
B2   B   0.111032770763431   0.722183052048380   0.375000000000000   1.0000000
B2   B   0.444587280309052   0.722283022764602   0.375000000000000   1.0000000
B2   B   0.278290023775601   0.222986159810452   0.375000000000000   1.0000000
B2   B   0.777013840189548   0.721709976224399   0.375000000000000   1.0000000
B2   B   0.611362802701523   0.222986159810452   0.375000000000000   1.0000000
B2   B   0.944439506088951   0.222212345511237   0.375000000000000   1.0000000
B2   B   0.111090112940903   0.388877115922767   0.875000000000000   1.0000000
B2   B   0.277775031004139   0.888883395341607   0.875000000000000   1.0000000
B2   B   0.611122884077233   0.888909887059097   0.875000000000000   1.0000000
B2   B   0.444415730132948   0.388874531733138   0.875000000000000   1.0000000
B2   B   0.944453669648535   0.888909887059097   0.875000000000000   1.0000000
B2   B   0.111038121263766   0.888961878736233   0.375000000000000   1.0000000
B2   B   0.777803672072484   0.388875072093318   0.875000000000000   1.0000000
B2   B   0.444590424139139   0.888961878736233   0.375000000000000   1.0000000
B2   B   0.278290023775601   0.388637197298477   0.375000000000000   1.0000000
B2   B   0.277716977235398   0.555412719690948   0.375000000000000   1.0000000
B2   B   0.610634779251404   0.389365220748596   0.375000000000000   1.0000000
B2   B   0.777768817846495   0.888870969026318   0.375000000000000   1.0000000
B2   B   0.944173648174904   0.388804850329492   0.375000000000000   1.0000000
B2   B   0.111108783032981   0.555550899399290   0.875000000000000   1.0000000
B2   B   0.277758427575279   0.055536660426877   0.875000000000000   1.0000000
B2   B   0.777806197023738   0.555569765178537   0.875000000000000   1.0000000
B2   B   0.611122884077233   0.055546330351465   0.875000000000000   1.0000000
B2   B   0.944439455793176   0.055560544206824   0.875000000000000   1.0000000
B2   B   0.055533035028523   0.111083030439601   0.124900265030991   1.0000000
B2   B   0.555526486237377   0.611213116927296   0.124825174862538   1.0000000
B2   B   0.388812607330995   0.110958547995334   0.124855368796412   1.0000000
B2   B   0.889041452004666   0.611187392669005   0.124855368796412   1.0000000
B2   B   0.722216662077743   0.111083030439601   0.124900265030991   1.0000000
B2   B   0.055624291386754   0.777801937199996   0.625095241490630   1.0000000
B2   B   0.388844312479907   0.777801937199996   0.625095241490630   1.0000000
B2   B   0.222142761182647   0.277738047257991   0.625155558222637   1.0000000
B2   B   0.722261952742009   0.777857238817353   0.625155558222637   1.0000000
B2   B   0.555526486237377   0.277646702643417   0.625174825137462   1.0000000
B2   B   0.888916969560399   0.277783337922257   0.625099734969009   1.0000000
B2   B   0.222222222222221   0.777777777777779   0.124915378505670   1.0000000
B2   B   0.055533035028523   0.277783337922257   0.124900265030991   1.0000000
B2   B   0.388786883072703   0.277646702643417   0.124825174862538   1.0000000
B2   B   0.555522251264005   0.777843189496206   0.124870028213877   1.0000000
B2   B   0.888987604898867   0.777843189496206   0.124870028213877   1.0000000
B2   B   0.722261952742009   0.277738047257991   0.124844441777363   1.0000000
B2   B   0.055572413616825   0.944427586383175   0.625095493689392   1.0000000
B2   B   0.388844312479907   0.944375708613246   0.625095241490630   1.0000000
B2   B   0.222156810503793   0.444477748735996   0.625129971786123   1.0000000
B2   B   0.555555555555557   0.444444444444443   0.625233071812664   1.0000000
B2   B   0.722216662077743   0.944466964971477   0.625099734969009   1.0000000
B2   B   0.888987604898867   0.444477748735996   0.625129971786123   1.0000000
B2   B   0.055572413616825   0.444478160566978   0.124904506310608   1.0000000
B2   B   0.222198062800003   0.944375708613246   0.124904758509369   1.0000000
B2   B   0.555521839433022   0.944427586383175   0.124904506310608   1.0000000
B2   B   0.388786883072703   0.444473513762623   0.124825174862538   1.0000000
B2   B   0.888916969560399   0.944466964971477   0.124900265030991   1.0000000
B2   B   0.722353297356584   0.444473513762623   0.124825174862538   1.0000000
B2   B   0.222198062800003   0.611155687520093   0.625095241490630   1.0000000
B2   B   0.055533035028523   0.111083030439601   0.625099734969009   1.0000000
B2   B   0.555526486237377   0.611213116927296   0.625174825137462   1.0000000
B2   B   0.388812607330995   0.110958547995334   0.625144631203588   1.0000000
B2   B   0.889041452004666   0.611187392669005   0.625144631203588   1.0000000
B2   B   0.055624291386754   0.611155687520093   0.124904758509369   1.0000000
B2   B   0.722216662077743   0.111083030439601   0.625099734969009   1.0000000
B2   B   0.222156810503793   0.111012395101133   0.124870028213877   1.0000000
B2   B   0.388812607330995   0.611187392669005   0.124855368796412   1.0000000
B2   B   0.722353297356584   0.611213116927296   0.124825174862538   1.0000000
B2   B   0.555522251264005   0.111012395101133   0.124870028213877   1.0000000
B2   B   0.388812607330995   0.611187392669005   0.625144631203588   1.0000000
B2   B   0.888888888888886   0.111111111111114   0.124913317596188   1.0000000
B2   B   0.222222222222221   0.777777777777779   0.625084621494330   1.0000000
B2   B   0.055533035028523   0.277783337922257   0.625099734969009   1.0000000
B2   B   0.388786883072703   0.277646702643417   0.625174825137462   1.0000000
B2   B   0.555522251264005   0.777843189496206   0.625129971786123   1.0000000
B2   B   0.888987604898867   0.777843189496206   0.625129971786123   1.0000000
B2   B   0.722261952742009   0.277738047257991   0.625155558222637   1.0000000
B2   B   0.055624291386754   0.777801937199996   0.124904758509369   1.0000000
B2   B   0.388844312479907   0.777801937199996   0.124904758509369   1.0000000
B2   B   0.222142761182647   0.277738047257991   0.124844441777363   1.0000000
B2   B   0.722261952742009   0.777857238817353   0.124844441777363   1.0000000
B2   B   0.555526486237377   0.277646702643417   0.124825174862538   1.0000000
B2   B   0.888916969560399   0.277783337922257   0.124900265030991   1.0000000
B2   B   0.055572413616825   0.444478160566978   0.625095493689392   1.0000000
B2   B   0.222198062800003   0.944375708613246   0.625095241490630   1.0000000
B2   B   0.555521839433022   0.944427586383175   0.625095493689392   1.0000000
B2   B   0.388786883072703   0.444473513762623   0.625174825137462   1.0000000
B2   B   0.888916969560399   0.944466964971477   0.625099734969009   1.0000000
B2   B   0.055572413616825   0.944427586383175   0.124904506310608   1.0000000
B2   B   0.722353297356584   0.444473513762623   0.625174825137462   1.0000000
B2   B   0.388844312479907   0.944375708613246   0.124904758509369   1.0000000
B2   B   0.222156810503793   0.444477748735996   0.124870028213877   1.0000000
B2   B   0.222198062800003   0.611155687520093   0.124904758509369   1.0000000
B2   B   0.555555555555557   0.444444444444443   0.124766928187336   1.0000000
B2   B   0.722216662077743   0.944466964971477   0.124900265030991   1.0000000
B2   B   0.888987604898867   0.444477748735996   0.124870028213877   1.0000000
B2   B   0.055624291386754   0.611155687520093   0.625095241490630   1.0000000
B2   B   0.222156810503793   0.111012395101133   0.625129971786123   1.0000000
B2   B   0.722353297356584   0.611213116927296   0.625174825137462   1.0000000
B2   B   0.555522251264005   0.111012395101133   0.625129971786123   1.0000000
B2   B   0.888888888888886   0.111111111111114   0.625086682403812   1.0000000


