data_1
_audit_creation_method   'vasp2cif'
_cell_length_a    14.93631414619966
_cell_length_b    14.936314146199727
_cell_length_c    13.341276283792837
_cell_angle_alpha    90.0
_cell_angle_beta    90.0
_cell_angle_gamma    119.99999999999984

_symmetry_space_group_name_H-M    'P 1'
loop_
_atom_site_label
_atom_site_type_symbol
_atom_site_fract_x
_atom_site_fract_y
_atom_site_fract_z
_atom_site_occupancy
Sb2   Sb   0.511968245284854   0.422650789309096   0.375000000000000   1.0000000
N2   N   0.105634888537762   0.052811969689212   0.124836121944060   1.0000000
N2   N   0.605753683776036   0.553033295281691   0.119710888507124   1.0000000
N2   N   0.438979173898081   0.052800008045632   0.124492171525562   1.0000000
N2   N   0.938921225777891   0.552786936789970   0.125004871150716   1.0000000
N2   N   0.772344342402046   0.052838837867725   0.124965192474878   1.0000000
N2   N   0.105589544433132   0.719461438883264   0.624722821339510   1.0000000
N2   N   0.438979173898080   0.719512499185766   0.625507828474438   1.0000000
N2   N   0.272260121114393   0.219446145621421   0.626761487317699   1.0000000
N2   N   0.772306851464081   0.719541871996876   0.626245290265981   1.0000000
N2   N   0.605671579100060   0.219427781819201   0.626627164516072   1.0000000
N2   N   0.938998224490324   0.219488507436341   0.625024206036439   1.0000000
N2   N   0.272276839494794   0.719475871886464   0.125090782039155   1.0000000
N2   N   0.105640237166353   0.219486785249841   0.124521432269038   1.0000000
N2   N   0.439005072621466   0.219469156565646   0.122533352012190   1.0000000
N2   N   0.605671579100060   0.719577130614180   0.123372835483928   1.0000000
N2   N   0.938921225777891   0.719467622321298   0.125004871150716   1.0000000
N2   N   0.772331814877270   0.219450715161565   0.124714329908552   1.0000000
N2   N   0.105607602251760   0.886136566345199   0.624839635150805   1.0000000
N2   N   0.438965071377872   0.886149202355634   0.624980923048789   1.0000000
N2   N   0.272260121114393   0.386147308826321   0.626761487317699   1.0000000
N2   N   0.605753683776017   0.386053721827652   0.630289111492886   1.0000000
N2   N   0.772331814877269   0.886214433049007   0.625285670091418   1.0000000
N2   N   0.938966135445881   0.386129518850775   0.624938773015342   1.0000000
N2   N   0.105634888537762   0.386156252181844   0.124836121944060   1.0000000
N2   N   0.272276839494794   0.886134300941651   0.125090782039154   1.0000000
N2   N   0.605663641954541   0.886194240697560   0.124834131050620   1.0000000
N2   N   0.438758258365702   0.386045795849499   0.119930345712401   1.0000000
N2   N   0.938966135445885   0.886169949928474   0.125061226984645   1.0000000
N2   N   0.772306851464086   0.386098312800582   0.123754709734003   1.0000000
N2   N   0.272302643085301   0.552830746614459   0.625499054379950   1.0000000
N2   N   0.105634888537765   0.052811969689212   0.625163878055873   1.0000000
N2   N   0.605753683776034   0.553033295281691   0.630289111492899   1.0000000
N2   N   0.438979173898081   0.052800008045634   0.625507828474438   1.0000000
N2   N   0.938921225777891   0.552786936789970   0.624995128849328   1.0000000
N2   N   0.105607602251755   0.552804369239931   0.125160364849257   1.0000000
N2   N   0.772344342402046   0.052838837867728   0.625034807525068   1.0000000
N2   N   0.272302643085301   0.052805229804219   0.124500945620053   1.0000000
N2   N   0.439005072621466   0.552869249389154   0.122533352012190   1.0000000
N2   N   0.772260222245382   0.552796777789383   0.123244005125093   1.0000000
N2   N   0.605663641954541   0.052802734590276   0.124834131050600   1.0000000
N2   N   0.439005072621469   0.552869249389152   0.627466647987807   1.0000000
N2   N   0.938998224490329   0.052843050387334   0.124975793963596   1.0000000
N2   N   0.272276839494794   0.719475871886464   0.624909217960810   1.0000000
N2   N   0.105640237166353   0.219486785249841   0.625478567730980   1.0000000
N2   N   0.439005072621466   0.219469156565638   0.627466647987807   1.0000000
N2   N   0.605671579100060   0.719577130614146   0.626627164516072   1.0000000
N2   N   0.938921225777891   0.719467622321298   0.624995128849328   1.0000000
N2   N   0.772331814877270   0.219450715161565   0.625285670091417   1.0000000
N2   N   0.105589544433132   0.719461438883264   0.125277178660480   1.0000000
N2   N   0.438979173898081   0.719512499185765   0.124492171525561   1.0000000
N2   N   0.272260121114427   0.219446145621421   0.123238512682342   1.0000000
N2   N   0.772306851464082   0.719541871996876   0.123754709734003   1.0000000
N2   N   0.605671579100060   0.219427781819200   0.123372835483928   1.0000000
N2   N   0.938998224490329   0.219488507436341   0.124975793963596   1.0000000
N2   N   0.105634888537766   0.386156252181844   0.625163878055873   1.0000000
N2   N   0.272276839494794   0.886134300941651   0.624909217960810   1.0000000
N2   N   0.605663641954541   0.886194240697560   0.625165868949372   1.0000000
N2   N   0.438758258365702   0.386045795849499   0.630069654287573   1.0000000
N2   N   0.938966135445881   0.886169949928474   0.624938773015342   1.0000000
N2   N   0.105607602251756   0.886136566345199   0.125160364849258   1.0000000
N2   N   0.772306851464081   0.386098312800582   0.626245290265981   1.0000000
N2   N   0.438965071377873   0.886149202355634   0.125019076951235   1.0000000
N2   N   0.272260121114393   0.386147308826321   0.123238512682341   1.0000000
N2   N   0.272302643085302   0.552830746614459   0.124500945620053   1.0000000
N2   N   0.605753683776017   0.386053721827652   0.119710888507125   1.0000000
N2   N   0.772331814877272   0.886214433049007   0.124714329908552   1.0000000
N2   N   0.938966135445878   0.386129518850774   0.125061226984645   1.0000000
N2   N   0.105607602251755   0.552804369239931   0.624839635150805   1.0000000
N2   N   0.272302643085301   0.052805229804217   0.625499054379950   1.0000000
N2   N   0.772260222245382   0.552796777789383   0.626755994874948   1.0000000
N2   N   0.605663641954541   0.052802734590275   0.625165868949372   1.0000000
N2   N   0.938998224490329   0.052843050387333   0.625024206036439   1.0000000
N2   N   0.064667414778945   0.115883092169539   0.375000000000000   1.0000000
N2   N   0.561283060988017   0.627820228402725   0.375000000000000   1.0000000
N2   N   0.392869782048262   0.106120076822110   0.375000000000000   1.0000000
N2   N   0.891072255359801   0.612202794346574   0.375000000000000   1.0000000
N2   N   0.730288522518911   0.113820931039418   0.375000000000000   1.0000000
N2   N   0.061066997459833   0.780529223182701   0.875000000000000   1.0000000
N2   N   0.394402181224163   0.780547281966341   0.875000000000000   1.0000000
N2   N   0.227753358718603   0.280543346025964   0.875000000000000   1.0000000
N2   N   0.727752365309773   0.780549603128451   0.875000000000000   1.0000000
N2   N   0.561058460162187   0.280501832690607   0.875000000000000   1.0000000
N2   N   0.894424557569995   0.280549221327785   0.875000000000000   1.0000000
N2   N   0.225578237502274   0.779455785417756   0.375000000000000   1.0000000
N2   N   0.064667414778945   0.282117655942733   0.375000000000000   1.0000000
N2   N   0.395835924104099   0.270740800757621   0.375000000000000   1.0000000
N2   N   0.561528252832282   0.786840153662818   0.375000000000000   1.0000000
N2   N   0.894767745655414   0.781704672871329   0.375000000000000   1.0000000
N2   N   0.729963420456283   0.278169329136340   0.375000000000000   1.0000000
N2   N   0.061080170149752   0.947196636643001   0.875000000000000   1.0000000
N2   N   0.394402181224163   0.947188232591197   0.875000000000000   1.0000000
N2   N   0.227747014724201   0.447226273500272   0.875000000000000   1.0000000
N2   N   0.561054990875874   0.447194162104598   0.875000000000000   1.0000000
N2   N   0.727761152525541   0.947216553196126   0.875000000000000   1.0000000
N2   N   0.894412045265276   0.447206696998169   0.875000000000000   1.0000000
N2   N   0.061715095283095   0.447751953084356   0.375000000000000   1.0000000
N2   N   0.225966535720802   0.944483929674545   0.375000000000000   1.0000000
N2   N   0.561628876361605   0.947481104847442   0.375000000000000   1.0000000
N2   N   0.395835924104101   0.458428456679857   0.375000000000000   1.0000000
N2   N   0.897242729621588   0.949697471879413   0.375000000000000   1.0000000
N2   N   0.727177236069213   0.443662222964481   0.375000000000000   1.0000000
N2   N   0.227734922290365   0.613885202669388   0.875000000000000   1.0000000
N2   N   0.061094596433292   0.113874993300707   0.875000000000000   1.0000000
N2   N   0.561058460162187   0.613889960804948   0.875000000000000   1.0000000
N2   N   0.394400123722927   0.113834998352130   0.875000000000000   1.0000000
N2   N   0.894409866125034   0.613871599729216   0.875000000000000   1.0000000
N2   N   0.058917569127790   0.613195480116879   0.375000000000000   1.0000000
N2   N   0.727761152525541   0.113877932662758   0.875000000000000   1.0000000
N2   N   0.228760076685273   0.112515370369951   0.375000000000000   1.0000000
N2   N   0.392869782048261   0.620083038559461   0.375000000000000   1.0000000
N2   N   0.727177236069246   0.616848346438061   0.375000000000000   1.0000000
N2   N   0.561528252832278   0.108021432502838   0.375000000000000   1.0000000
N2   N   0.394400123722926   0.613898458704175   0.875000000000000   1.0000000
N2   N   0.897864573588509   0.115598953460931   0.375000000000000   1.0000000
N2   N   0.227730600780023   0.780531967056673   0.875000000000000   1.0000000
N2   N   0.061094596433290   0.280552936465903   0.875000000000000   1.0000000
N2   N   0.394396132171310   0.280506651958242   0.875000000000000   1.0000000
N2   N   0.561079708188267   0.780556930990285   0.875000000000000   1.0000000
N2   N   0.894412045265276   0.780538681600542   0.875000000000000   1.0000000
N2   N   0.727752365309774   0.280536095514708   0.875000000000000   1.0000000
N2   N   0.058917569127792   0.779055422344212   0.375000000000000   1.0000000
N2   N   0.393057124634280   0.782107526899207   0.375000000000000   1.0000000
N2   N   0.232998460222639   0.283165896778005   0.375000000000000   1.0000000
N2   N   0.729963420456239   0.785127424653280   0.375000000000000   1.0000000
N2   N   0.561283060987990   0.266796165918673   0.375000000000000   1.0000000
N2   N   0.897242729621588   0.280878591075426   0.375000000000000   1.0000000
N2   N   0.061080170149750   0.447216866840071   0.875000000000000   1.0000000
N2   N   0.227734922290365   0.947183052954332   0.875000000000000   1.0000000
N2   N   0.561079866897917   0.947206600115681   0.875000000000000   1.0000000
N2   N   0.394396132171310   0.447222813546421   0.875000000000000   1.0000000
N2   N   0.894424557569995   0.947208669575570   0.875000000000000   1.0000000
N2   N   0.061715095283094   0.947296475532024   0.375000000000000   1.0000000
N2   N   0.727747535418905   0.447205497796180   0.875000000000000   1.0000000
N2   N   0.393057124634279   0.944282931068471   0.375000000000000   1.0000000
N2   N   0.228760076685273   0.449578039648665   0.375000000000000   1.0000000
N2   N   0.225966535720801   0.614815939379608   0.375000000000000   1.0000000
N2   N   0.730288522518910   0.949800924812802   0.375000000000000   1.0000000
N2   N   0.894767745655454   0.446396406117403   0.375000000000000   1.0000000
N2   N   0.061066997459835   0.613871107610456   0.875000000000000   1.0000000
N2   N   0.227747014724201   0.113854074557301   0.875000000000000   1.0000000
N2   N   0.727747535418905   0.613875370956086   0.875000000000000   1.0000000
N2   N   0.561079708188267   0.113856110531330   0.875000000000000   1.0000000
N2   N   0.894434734945577   0.113884034139478   0.875000000000000   1.0000000
B2   B   0.118614742731511   0.058694325973551   0.375000000000000   1.0000000
B2   B   0.616833502023270   0.574886424106578   0.375000000000000   1.0000000
B2   B   0.450092950390144   0.053921275293035   0.375000000000000   1.0000000
B2   B   0.947784774356881   0.557448704928222   0.375000000000000   1.0000000
B2   B   0.786817223039181   0.060075278186276   0.375000000000000   1.0000000
B2   B   0.116724413551587   0.725028873442486   0.875000000000000   1.0000000
B2   B   0.450065953852895   0.725021402734287   0.875000000000000   1.0000000
B2   B   0.283453718540924   0.225061243149534   0.875000000000000   1.0000000
B2   B   0.783358995663758   0.724980006113452   0.875000000000000   1.0000000
B2   B   0.616700437116520   0.225054247032978   0.875000000000000   1.0000000
B2   B   0.950100098028045   0.225056950536211   0.875000000000000   1.0000000
B2   B   0.282003611062604   0.725393306705522   0.375000000000000   1.0000000
B2   B   0.122074268621259   0.227703800977298   0.375000000000000   1.0000000
B2   B   0.449182230836428   0.215639944744543   0.375000000000000   1.0000000
B2   B   0.618721332376162   0.734820751929032   0.375000000000000   1.0000000
B2   B   0.947784774356861   0.723669402762020   0.375000000000000   1.0000000
B2   B   0.786358303680928   0.224611455449739   0.375000000000000   1.0000000
B2   B   0.116738628096442   0.891701266584345   0.875000000000000   1.0000000
B2   B   0.450071556851526   0.891702445092407   0.875000000000000   1.0000000
B2   B   0.283453718540924   0.391725808724721   0.875000000000000   1.0000000
B2   B   0.616657045251830   0.391704242150442   0.875000000000000   1.0000000
B2   B   0.783393838888213   0.891677396524226   0.875000000000000   1.0000000
B2   B   0.950063464967203   0.391708344362938   0.875000000000000   1.0000000
B2   B   0.118614742731511   0.393253750091288   0.375000000000000   1.0000000
B2   B   0.282003611062604   0.889943637690451   0.375000000000000   1.0000000
B2   B   0.618902468605776   0.895497953245099   0.375000000000000   1.0000000
B2   B   0.951151608718268   0.892708472684605   0.375000000000000   1.0000000
B2   B   0.784004773423501   0.389802629502199   0.375000000000000   1.0000000
B2   B   0.283422371356718   0.558375423107561   0.875000000000000   1.0000000
B2   B   0.116774067474390   0.058383640023878   0.875000000000000   1.0000000
B2   B   0.616657045251830   0.558286136434712   0.875000000000000   1.0000000
B2   B   0.450065953852896   0.058377884451918   0.875000000000000   1.0000000
B2   B   0.950032386003251   0.558356343109646   0.875000000000000   1.0000000
B2   B   0.115403100299442   0.558601002983070   0.375000000000000   1.0000000
B2   B   0.783416368158542   0.058374850745939   0.875000000000000   1.0000000
B2   B   0.282552633832147   0.055258897326667   0.375000000000000   1.0000000
B2   B   0.449182230836429   0.566875619425164   0.375000000000000   1.0000000
B2   B   0.778612185563430   0.555972759448421   0.375000000000000   1.0000000
B2   B   0.618902468605776   0.056737848694029   0.375000000000000   1.0000000
B2   B   0.450060639133470   0.558342783765177   0.875000000000000   1.0000000
B2   B   0.953835780119417   0.060698787007300   0.375000000000000   1.0000000
B2   B   0.283409144568445   0.725036513927933   0.875000000000000   1.0000000
B2   B   0.116792086072036   0.225062709702681   0.875000000000000   1.0000000
B2   B   0.450060639133470   0.225051188701648   0.875000000000000   1.0000000
B2   B   0.616700437116521   0.724979523416855   0.875000000000000   1.0000000
B2   B   0.950032386003251   0.725009376226977   0.875000000000000   1.0000000
B2   B   0.783393838888213   0.225049775697338   0.875000000000000   1.0000000
B2   B   0.114637562927658   0.723985448130525   0.375000000000000   1.0000000
B2   B   0.450092950390143   0.729505008430393   0.375000000000000   1.0000000
B2   B   0.287781333524864   0.225035659233677   0.375000000000000   1.0000000
B2   B   0.784004773423533   0.727535477254616   0.375000000000000   1.0000000
B2   B   0.618721332376163   0.217233913780504   0.375000000000000   1.0000000
B2   B   0.953835780119352   0.226470326445434   0.375000000000000   1.0000000
B2   B   0.116774067474385   0.391723760783842   0.875000000000000   1.0000000
B2   B   0.283409144568445   0.891705963973862   0.875000000000000   1.0000000
B2   B   0.616732682293561   0.891688392490876   0.875000000000000   1.0000000
B2   B   0.450083563121231   0.391708448227303   0.875000000000000   1.0000000
B2   B   0.950063464967203   0.891688453937631   0.875000000000000   1.0000000
B2   B   0.115403100299436   0.890135430649723   0.375000000000000   1.0000000
B2   B   0.783358995663749   0.391712322883645   0.875000000000000   1.0000000
B2   B   0.450171404445505   0.891752368889391   0.375000000000000   1.0000000
B2   B   0.287781333524847   0.396079007624496   0.375000000000000   1.0000000
B2   B   0.282552633832147   0.560627069838862   0.375000000000000   1.0000000
B2   B   0.616833502023244   0.375280411249946   0.375000000000000   1.0000000
B2   B   0.786358303680930   0.895080181564528   0.375000000000000   1.0000000
B2   B   0.951151608718261   0.391776469366917   0.375000000000000   1.0000000
B2   B   0.116738628096441   0.558370694845323   0.875000000000000   1.0000000
B2   B   0.283422371356718   0.058380281582536   0.875000000000000   1.0000000
B2   B   0.783331794156721   0.558332563745078   0.875000000000000   1.0000000
B2   B   0.616732682293561   0.058377623135958   0.875000000000000   1.0000000
B2   B   0.950100098028045   0.058376480825165   0.875000000000000   1.0000000
B2   B   0.050075459387891   0.108391999329931   0.124930133328358   1.0000000
B2   B   0.550095142403815   0.608234972068036   0.122212742947866   1.0000000
B2   B   0.383445526908848   0.108522018096993   0.124166599800449   1.0000000
B2   B   0.883137719580362   0.608235526456869   0.124691147531859   1.0000000
B2   B   0.716670255139844   0.108331233377013   0.124947527883834   1.0000000
B2   B   0.049932838225767   0.774979840204483   0.624704579786354   1.0000000
B2   B   0.383360639540619   0.774970370925521   0.624978496171571   1.0000000
B2   B   0.216813700700690   0.275073517017010   0.626030160242291   1.0000000
B2   B   0.716623124836217   0.774968791627020   0.625919241165747   1.0000000
B2   B   0.550095142403815   0.275193503669038   0.627787257052127   1.0000000
B2   B   0.883326184498922   0.274975813507258   0.624964581524083   1.0000000
B2   B   0.216660314573399   0.774996823953388   0.125262444923438   1.0000000
B2   B   0.050075459387891   0.275016793391296   0.124930133328358   1.0000000
B2   B   0.383451790311543   0.275169939750105   0.122426951650177   1.0000000
B2   B   0.550031654878323   0.774964492891322   0.124434334976304   1.0000000
B2   B   0.883236579777288   0.774964719369406   0.124801337687904   1.0000000
B2   B   0.716623124836218   0.274987666542492   0.124080758834241   1.0000000
B2   B   0.050006607066232   0.941706790444979   0.624823419072181   1.0000000
B2   B   0.383360639540617   0.941723601948384   0.624978496171571   1.0000000
B2   B   0.216768681648385   0.441644021444602   0.625517737350235   1.0000000
B2   B   0.550022080720555   0.441677707026942   0.627306927868631   1.0000000
B2   B   0.716670255139804   0.941672355096211   0.625052472116131   1.0000000
B2   B   0.883236579777288   0.441605193741174   0.625198662312117   1.0000000
B2   B   0.050006607066232   0.441633149954568   0.125176580927822   1.0000000
B2   B   0.216698943650073   0.941744216155992   0.125082602035028   1.0000000
B2   B   0.550016813519410   0.941675073426387   0.125042285394846   1.0000000
B2   B   0.383451790311543   0.441615183894754   0.122426951650177   1.0000000
B2   B   0.883326184498922   0.941683704325048   0.125035418475906   1.0000000
B2   B   0.716430474453336   0.441546255541962   0.122493138577732   1.0000000
B2   B   0.216698943650073   0.608288060827480   0.624917397964984   1.0000000
B2   B   0.050075459387892   0.108391999329931   0.625069866671652   1.0000000
B2   B   0.550095142403846   0.608234972068036   0.627787257052128   1.0000000
B2   B   0.383445526908848   0.108522018096993   0.625833400199524   1.0000000
B2   B   0.883137719580362   0.608235526456869   0.625308852468130   1.0000000
B2   B   0.049932838225767   0.608286331354643   0.125295420213577   1.0000000
B2   B   0.716670255139844   0.108331233377012   0.625052472116131   1.0000000
B2   B   0.216768681648387   0.108457993537143   0.124482262649791   1.0000000
B2   B   0.383445526908848   0.608256842145195   0.124166599800449   1.0000000
B2   B   0.716430474453334   0.608217552244634   0.122493138577732   1.0000000
B2   B   0.550031654878323   0.108400495320345   0.124434334976305   1.0000000
B2   B   0.383445526908848   0.608256842145195   0.625833400199524   1.0000000
B2   B   0.883364354516960   0.108348843925122   0.125065623982995   1.0000000
B2   B   0.216660314573399   0.774996823953388   0.624737555076577   1.0000000
B2   B   0.050075459387890   0.275016793391296   0.625069866671652   1.0000000
B2   B   0.383451790311543   0.275169939750105   0.627573048349781   1.0000000
B2   B   0.550031654878323   0.774964492891321   0.625565665023665   1.0000000
B2   B   0.883236579777288   0.774964719369406   0.625198662312117   1.0000000
B2   B   0.716623124836217   0.274987666542492   0.625919241165747   1.0000000
B2   B   0.049932838225767   0.774979840204483   0.125295420213577   1.0000000
B2   B   0.383360639540618   0.774970370925521   0.125021503828410   1.0000000
B2   B   0.216813700700690   0.275073517017010   0.123969839757666   1.0000000
B2   B   0.716623124836218   0.774968791627020   0.124080758834241   1.0000000
B2   B   0.550095142403815   0.275193503669038   0.122212742947865   1.0000000
B2   B   0.883326184498926   0.274975813507258   0.125035418475906   1.0000000
B2   B   0.050006607066232   0.441633149954568   0.624823419072181   1.0000000
B2   B   0.216698943650069   0.941744216155992   0.624917397964984   1.0000000
B2   B   0.550016813519407   0.941675073426391   0.624957714605129   1.0000000
B2   B   0.383451790311558   0.441615183894754   0.627573048349784   1.0000000
B2   B   0.883326184498926   0.941683704325048   0.624964581524083   1.0000000
B2   B   0.050006607066232   0.941706790444978   0.125176580927822   1.0000000
B2   B   0.716430474453336   0.441546255541962   0.627506861422276   1.0000000
B2   B   0.383360639540617   0.941723601948384   0.125021503828427   1.0000000
B2   B   0.216768681648388   0.441644021444602   0.124482262649791   1.0000000
B2   B   0.216698943650073   0.608288060827481   0.125082602035028   1.0000000
B2   B   0.550022080720555   0.441677707026942   0.122693072131303   1.0000000
B2   B   0.716670255139806   0.941672355096211   0.124947527883833   1.0000000
B2   B   0.883236579777285   0.441605193741174   0.124801337687904   1.0000000
B2   B   0.049932838225767   0.608286331354643   0.624704579786354   1.0000000
B2   B   0.216768681648383   0.108457993537143   0.625517737350235   1.0000000
B2   B   0.716430474453333   0.608217552244634   0.627506861422276   1.0000000
B2   B   0.550031654878322   0.108400495320345   0.625565665023665   1.0000000
B2   B   0.883364354516960   0.108348843925121   0.624934376016976   1.0000000


