data_1
_audit_creation_method   'vasp2cif'
_cell_length_a    14.93631414619966
_cell_length_b    14.936314146199727
_cell_length_c    13.341276283792837
_cell_angle_alpha    90.0
_cell_angle_beta    90.0
_cell_angle_gamma    119.99999999999984

_symmetry_space_group_name_H-M    'P 1'
loop_
_atom_site_label
_atom_site_type_symbol
_atom_site_fract_x
_atom_site_fract_y
_atom_site_fract_z
_atom_site_occupancy
Sb2   Sb   0.555555555555557   0.444444444444443   0.375000000000000   1.0000000
N2   N   0.111110863418834   0.055535788006532   0.124460877716814   1.0000000
N2   N   0.611149158151956   0.555631649637072   0.129546267109011   1.0000000
N2   N   0.444431199418497   0.055546107498915   0.124930974297268   1.0000000
N2   N   0.944453892501094   0.555568800581294   0.124930974297268   1.0000000
N2   N   0.777764932490228   0.055549132911771   0.124508685069384   1.0000000
N2   N   0.111118980354622   0.722226156843685   0.625163061544507   1.0000000
N2   N   0.444431199418571   0.722218425252982   0.625069025703221   1.0000000
N2   N   0.277760562745456   0.222193831033128   0.624494369705352   1.0000000
N2   N   0.777806168966648   0.722239437254572   0.624494369705352   1.0000000
N2   N   0.611099934954214   0.222193831033128   0.624494369705352   1.0000000
N2   N   0.944450867088145   0.222235067509722   0.625491314930685   1.0000000
N2   N   0.277773843155910   0.722226156843685   0.124836938456230   1.0000000
N2   N   0.111126840503519   0.222230086918399   0.124571351123020   1.0000000
N2   N   0.444452196990209   0.222237727313320   0.126688656648131   1.0000000
N2   N   0.611099934954215   0.722239437254572   0.125505630294690   1.0000000
N2   N   0.944453892501094   0.722218425252982   0.124930974297268   1.0000000
N2   N   0.777769913081604   0.222230086918399   0.124571351123020   1.0000000
N2   N   0.111122852430107   0.888877147570080   0.625341159927040   1.0000000
N2   N   0.444420961806690   0.888877147570080   0.625341159927040   1.0000000
N2   N   0.277760562745458   0.388900065045800   0.624494369705352   1.0000000
N2   N   0.611149158151956   0.388850841848128   0.620453732891145   1.0000000
N2   N   0.777769913081604   0.888873159496574   0.625428648876859   1.0000000
N2   N   0.944464211993727   0.388908408745644   0.625539122283140   1.0000000
N2   N   0.111110863418835   0.388908408745644   0.124460877716814   1.0000000
N2   N   0.277773843155910   0.888881019645146   0.124836938456234   1.0000000
N2   N   0.611091591254423   0.888889136581311   0.124460877716814   1.0000000
N2   N   0.444368350363129   0.388850841848128   0.129546267109073   1.0000000
N2   N   0.944464211993727   0.888889136581311   0.124460877716814   1.0000000
N2   N   0.777806168966648   0.388900065045800   0.125505630294693   1.0000000
N2   N   0.277781574747100   0.555568800581294   0.625069025703221   1.0000000
N2   N   0.111110863418835   0.055535788006531   0.625539122283140   1.0000000
N2   N   0.611149158151956   0.555631649637072   0.620453732890869   1.0000000
N2   N   0.444431199418497   0.055546107498914   0.625069025703221   1.0000000
N2   N   0.944453892501094   0.555568800581294   0.625069025703221   1.0000000
N2   N   0.111122852430107   0.555579038193480   0.124658840072954   1.0000000
N2   N   0.777764932490228   0.055549132911771   0.625491314930685   1.0000000
N2   N   0.277781574747100   0.055546107498908   0.124930974297268   1.0000000
N2   N   0.444452196990210   0.555547803010349   0.126688656648103   1.0000000
N2   N   0.777762272686245   0.555547803010366   0.126688656648131   1.0000000
N2   N   0.611091591254423   0.055535788006532   0.124460877716814   1.0000000
N2   N   0.444452196990209   0.555547803010349   0.623311343352065   1.0000000
N2   N   0.944450867088145   0.055549132911771   0.124508685069384   1.0000000
N2   N   0.277773843155910   0.722226156843685   0.625163061544507   1.0000000
N2   N   0.111126840503519   0.222230086918399   0.625428648876859   1.0000000
N2   N   0.444452196990209   0.222237727313322   0.623311343352066   1.0000000
N2   N   0.611099934954214   0.722239437254572   0.624494369705352   1.0000000
N2   N   0.944453892501094   0.722218425252982   0.625069025703221   1.0000000
N2   N   0.777769913081608   0.222230086918399   0.625428648876859   1.0000000
N2   N   0.111118980354622   0.722226156843685   0.124836938456234   1.0000000
N2   N   0.444431199418497   0.722218425252982   0.124930974297268   1.0000000
N2   N   0.277760562745456   0.222193831033128   0.125505630294693   1.0000000
N2   N   0.777806168966648   0.722239437254572   0.125505630294690   1.0000000
N2   N   0.611099934954214   0.222193831033129   0.125505630294690   1.0000000
N2   N   0.944450867088145   0.222235067509722   0.124508685069384   1.0000000
N2   N   0.111110863418834   0.388908408745644   0.625539122283140   1.0000000
N2   N   0.277773843155910   0.888881019645146   0.625163061544507   1.0000000
N2   N   0.611091591254423   0.888889136581311   0.625539122283140   1.0000000
N2   N   0.444368350363128   0.388850841848150   0.620453732890868   1.0000000
N2   N   0.944464211993727   0.888889136581311   0.625539122283140   1.0000000
N2   N   0.111122852430107   0.888877147570080   0.124658840072954   1.0000000
N2   N   0.777806168966648   0.388900065045800   0.624494369705352   1.0000000
N2   N   0.444420961806690   0.888877147570080   0.124658840072954   1.0000000
N2   N   0.277760562745458   0.388900065045800   0.125505630294690   1.0000000
N2   N   0.277781574747119   0.555568800581294   0.124930974297268   1.0000000
N2   N   0.611149158151957   0.388850841848128   0.129546267109057   1.0000000
N2   N   0.777769913081608   0.888873159496572   0.124571351123021   1.0000000
N2   N   0.944464211993725   0.388908408745644   0.124460877716814   1.0000000
N2   N   0.111122852430107   0.555579038193480   0.625341159927040   1.0000000
N2   N   0.277781574747100   0.055546107498908   0.625069025703221   1.0000000
N2   N   0.777762272686246   0.555547803010365   0.623311343352065   1.0000000
N2   N   0.611091591254423   0.055535788006532   0.625539122283140   1.0000000
N2   N   0.944450867088145   0.055549132911771   0.625491314930685   1.0000000
N2   N   0.054075065157954   0.110171681104066   0.375000000000000   1.0000000
N2   N   0.556099160979972   0.623441009676792   0.375000000000000   1.0000000
N2   N   0.387406648966794   0.108146631266977   0.375000000000000   1.0000000
N2   N   0.891853368733069   0.612593351033226   0.375000000000000   1.0000000
N2   N   0.722763282612705   0.110171681104067   0.375000000000000   1.0000000
N2   N   0.055540909157037   0.777775466886928   0.875000000000000   1.0000000
N2   N   0.388901224396851   0.777775466886928   0.875000000000000   1.0000000
N2   N   0.222217486517780   0.277775409925300   0.875000000000000   1.0000000
N2   N   0.722224590074738   0.777782513482700   0.875000000000000   1.0000000
N2   N   0.555562349864030   0.277786938870988   0.875000000000000   1.0000000
N2   N   0.888889798829597   0.277774144476054   0.875000000000000   1.0000000
N2   N   0.222222222222221   0.777777777777779   0.375000000000000   1.0000000
N2   N   0.054075065157950   0.277236717387209   0.375000000000000   1.0000000
N2   N   0.376558990323473   0.265991484636525   0.375000000000000   1.0000000
N2   N   0.555112100677466   0.782815584199964   0.375000000000000   1.0000000
N2   N   0.894370150188668   0.782815584199964   0.375000000000000   1.0000000
N2   N   0.724534661382885   0.275465338616919   0.375000000000000   1.0000000
N2   N   0.055552340076500   0.944447659923417   0.875000000000000   1.0000000
N2   N   0.388901224396851   0.944459090843053   0.875000000000000   1.0000000
N2   N   0.222219221958201   0.444435348861540   0.875000000000000   1.0000000
N2   N   0.555555555555557   0.444444444444443   0.875000000000000   1.0000000
N2   N   0.722225855523877   0.944448987686734   0.875000000000000   1.0000000
N2   N   0.888882793569783   0.444435348861540   0.875000000000000   1.0000000
N2   N   0.055787077382287   0.444907488098162   0.375000000000000   1.0000000
N2   N   0.221755230434921   0.943210848830891   0.375000000000000   1.0000000
N2   N   0.555092511902203   0.944212922617841   0.375000000000000   1.0000000
N2   N   0.376558990323471   0.443900839019924   0.375000000000000   1.0000000
N2   N   0.889828318896064   0.945924934842271   0.375000000000000   1.0000000
N2   N   0.734008515363123   0.443900839019924   0.375000000000000   1.0000000
N2   N   0.222224533112719   0.611098775603031   0.875000000000000   1.0000000
N2   N   0.055551012313142   0.111110201170393   0.875000000000000   1.0000000
N2   N   0.555562349864058   0.611108744325913   0.875000000000000   1.0000000
N2   N   0.388901105857055   0.111135545047495   0.875000000000000   1.0000000
N2   N   0.888864454952548   0.611098894143011   0.875000000000000   1.0000000
N2   N   0.056789151169351   0.611877714937464   0.375000000000000   1.0000000
N2   N   0.722225855523880   0.111110201170393   0.875000000000000   1.0000000
N2   N   0.217184415800112   0.105629849810773   0.375000000000000   1.0000000
N2   N   0.387406648966794   0.612593351033224   0.375000000000000   1.0000000
N2   N   0.734008515363125   0.623441009676745   0.375000000000000   1.0000000
N2   N   0.555112100677465   0.105629849810766   0.375000000000000   1.0000000
N2   N   0.388901105857055   0.611098894143011   0.875000000000000   1.0000000
N2   N   0.888888888888886   0.111111111111114   0.375000000000000   1.0000000
N2   N   0.222222222222221   0.777777777777779   0.875000000000000   1.0000000
N2   N   0.055551012313142   0.277774144476054   0.875000000000000   1.0000000
N2   N   0.388891255673920   0.277786938870988   0.875000000000000   1.0000000
N2   N   0.555564651139004   0.777780778041747   0.875000000000000   1.0000000
N2   N   0.888882793569783   0.777780778041747   0.875000000000000   1.0000000
N2   N   0.722224590074738   0.277775409925318   0.875000000000000   1.0000000
N2   N   0.056789151169350   0.778244769564598   0.375000000000000   1.0000000
N2   N   0.388122285062324   0.778244769564958   0.375000000000000   1.0000000
N2   N   0.217597343900350   0.275465338616919   0.375000000000000   1.0000000
N2   N   0.724534661382885   0.782402656099498   0.375000000000000   1.0000000
N2   N   0.556099160979970   0.265991484636500   0.375000000000000   1.0000000
N2   N   0.889828318896064   0.277236717387209   0.375000000000000   1.0000000
N2   N   0.055552340076521   0.444438013486595   0.875000000000000   1.0000000
N2   N   0.222224533112718   0.944459090843053   0.875000000000000   1.0000000
N2   N   0.555561986513503   0.944447659923714   0.875000000000000   1.0000000
N2   N   0.388891255673920   0.444437650136057   0.875000000000000   1.0000000
N2   N   0.888889798829597   0.944448987686734   0.875000000000000   1.0000000
N2   N   0.055787077382287   0.944212922617759   0.375000000000000   1.0000000
N2   N   0.722213061129098   0.444437650136057   0.875000000000000   1.0000000
N2   N   0.388122285062324   0.943210848830891   0.375000000000000   1.0000000
N2   N   0.217184415800110   0.444887899322877   0.375000000000000   1.0000000
N2   N   0.221755230434895   0.611877714937462   0.375000000000000   1.0000000
N2   N   0.722763282612705   0.945924934842271   0.375000000000000   1.0000000
N2   N   0.894370150188982   0.444887899322877   0.375000000000000   1.0000000
N2   N   0.055540909157035   0.611098775603031   0.875000000000000   1.0000000
N2   N   0.222219221958201   0.111117206430339   0.875000000000000   1.0000000
N2   N   0.722213061129098   0.611108744325913   0.875000000000000   1.0000000
N2   N   0.555564651139001   0.111117206430339   0.875000000000000   1.0000000
N2   N   0.888888888888886   0.111111111111114   0.875000000000000   1.0000000
B2   B   0.107820806616411   0.053177527198348   0.375000000000000   1.0000000
B2   B   0.629774915212866   0.592883163759460   0.375000000000000   1.0000000
B2   B   0.443965910178359   0.052732931067563   0.375000000000000   1.0000000
B2   B   0.947267068932731   0.556034089821614   0.375000000000000   1.0000000
B2   B   0.778621272001390   0.055977302667248   0.375000000000000   1.0000000
B2   B   0.111124632130619   0.722228982732193   0.875000000000000   1.0000000
B2   B   0.444447368232923   0.722276532221266   0.875000000000000   1.0000000
B2   B   0.277647915270158   0.222139050818348   0.875000000000000   1.0000000
B2   B   0.777860949181791   0.722352084729713   0.875000000000000   1.0000000
B2   B   0.611157802215012   0.222139050818348   0.875000000000000   1.0000000
B2   B   0.944431712046743   0.222196757426548   0.875000000000000   1.0000000
B2   B   0.277371495637987   0.722628504362042   0.375000000000000   1.0000000
B2   B   0.107238280226033   0.220285806779667   0.375000000000000   1.0000000
B2   B   0.441587395154719   0.216508123642661   0.375000000000000   1.0000000
B2   B   0.613207733030343   0.733301899097612   0.375000000000000   1.0000000
B2   B   0.947267068932731   0.724566312443904   0.375000000000000   1.0000000
B2   B   0.779714193220107   0.220285806779667   0.375000000000000   1.0000000
B2   B   0.111104284601505   0.888895715398335   0.875000000000000   1.0000000
B2   B   0.444458097463608   0.888895715398335   0.875000000000000   1.0000000
B2   B   0.277647915270081   0.388842197784901   0.875000000000000   1.0000000
B2   B   0.611184427467988   0.388815572532241   0.875000000000000   1.0000000
B2   B   0.777824477307091   0.888982287946893   0.875000000000000   1.0000000
B2   B   0.944465046066722   0.388849535582440   0.875000000000000   1.0000000
B2   B   0.107820806616411   0.387976612751578   0.375000000000000   1.0000000
B2   B   0.277371495637987   0.888076324609307   0.375000000000000   1.0000000
B2   B   0.612023387248671   0.892179193383561   0.375000000000000   1.0000000
B2   B   0.407116836240621   0.370225084786934   0.375000000000000   1.0000000
B2   B   0.946822472801688   0.892179193383561   0.375000000000000   1.0000000
B2   B   0.786760832733300   0.386792266969831   0.375000000000000   1.0000000
B2   B   0.277723467778699   0.555552631767063   0.875000000000000   1.0000000
B2   B   0.111051156182040   0.055534953933002   0.875000000000000   1.0000000
B2   B   0.611184427467988   0.555702188268847   0.875000000000000   1.0000000
B2   B   0.444447368232923   0.055504169344893   0.875000000000000   1.0000000
B2   B   0.944495830655041   0.555552631767063   0.875000000000000   1.0000000
B2   B   0.111225571548086   0.555784476429406   0.375000000000000   1.0000000
B2   B   0.777803242573488   0.055568287953371   0.875000000000000   1.0000000
B2   B   0.275433687555821   0.052732931067561   0.375000000000000   1.0000000
B2   B   0.441587395154719   0.558412604845172   0.375000000000000   1.0000000
B2   B   0.783491876357226   0.558412604845172   0.375000000000000   1.0000000
B2   B   0.612023387248671   0.053177527198348   0.375000000000000   1.0000000
B2   B   0.444400324237136   0.555599675763135   0.875000000000000   1.0000000
B2   B   0.944022697332812   0.055977302667216   0.375000000000000   1.0000000
B2   B   0.277771017268067   0.722228982732193   0.875000000000000   1.0000000
B2   B   0.111017712052850   0.222175522693084   0.875000000000000   1.0000000
B2   B   0.444400324237136   0.222133981807275   0.875000000000000   1.0000000
B2   B   0.611157802215012   0.722352084729712   0.875000000000000   1.0000000
B2   B   0.944495830655044   0.722276532221266   0.875000000000000   1.0000000
B2   B   0.777824477307091   0.222175522693080   0.875000000000000   1.0000000
B2   B   0.111923675390518   0.722628504362042   0.375000000000000   1.0000000
B2   B   0.443965910178359   0.724566312443903   0.375000000000000   1.0000000
B2   B   0.266698100902852   0.213239167266179   0.375000000000000   1.0000000
B2   B   0.786760832733822   0.733301899097614   0.375000000000000   1.0000000
B2   B   0.613207733030341   0.213239167266179   0.375000000000000   1.0000000
B2   B   0.944022697332812   0.221378727998982   0.375000000000000   1.0000000
B2   B   0.111051156182040   0.388849535582440   0.875000000000000   1.0000000
B2   B   0.277771017268069   0.888875367869469   0.875000000000000   1.0000000
B2   B   0.611150464417643   0.888948843818391   0.875000000000000   1.0000000
B2   B   0.444297811731202   0.388815572532235   0.875000000000000   1.0000000
B2   B   0.944465046066722   0.888948843818391   0.875000000000000   1.0000000
B2   B   0.111225571548087   0.888774428451613   0.375000000000000   1.0000000
B2   B   0.777860949181792   0.388842197784901   0.875000000000000   1.0000000
B2   B   0.444215523570550   0.888774428451613   0.375000000000000   1.0000000
B2   B   0.266698100902850   0.386792266969832   0.375000000000000   1.0000000
B2   B   0.275433687555824   0.556034089821615   0.375000000000000   1.0000000
B2   B   0.629774915212866   0.370225084786914   0.375000000000000   1.0000000
B2   B   0.779714193220107   0.892761719774260   0.375000000000000   1.0000000
B2   B   0.946822472801657   0.387976612751578   0.375000000000000   1.0000000
B2   B   0.111104284601528   0.555541902536498   0.875000000000000   1.0000000
B2   B   0.277723467778699   0.055504169344893   0.875000000000000   1.0000000
B2   B   0.777866018192393   0.555599675763136   0.875000000000000   1.0000000
B2   B   0.611150464417643   0.055534953933002   0.875000000000000   1.0000000
B2   B   0.944431712046743   0.055568287953371   0.875000000000000   1.0000000
B2   B   0.055474646894324   0.111036682406459   0.124158299207511   1.0000000
B2   B   0.555456078407385   0.611556314871842   0.126315799250811   1.0000000
B2   B   0.388679188113670   0.110691709560843   0.124829829501376   1.0000000
B2   B   0.889308290439318   0.611320811885895   0.124829829501376   1.0000000
B2   B   0.722228702178878   0.111036682406497   0.124158299207468   1.0000000
B2   B   0.055713877109457   0.777840095955673   0.625601449869879   1.0000000
B2   B   0.388792885513204   0.777840095955673   0.625601449869879   1.0000000
B2   B   0.221955543380058   0.277644438356823   0.625377138234469   1.0000000
B2   B   0.722355561643308   0.778044456619689   0.625377138234469   1.0000000
B2   B   0.555456078407385   0.277233096869019   0.623684200749169   1.0000000
B2   B   0.888963317593578   0.277771297821284   0.625841700792636   1.0000000
B2   B   0.222222222222221   0.777777777777779   0.124487638469478   1.0000000
B2   B   0.055474646894324   0.277771297821284   0.124158299207468   1.0000000
B2   B   0.388443685128587   0.277233096869037   0.126315799250810   1.0000000
B2   B   0.555499579240369   0.777984234420453   0.124404656153164   1.0000000
B2   B   0.889151321846819   0.777984234420463   0.124404656153161   1.0000000
B2   B   0.722355561643308   0.277644438356823   0.124622861765588   1.0000000
B2   B   0.055582863770615   0.944417136229036   0.625866766672535   1.0000000
B2   B   0.388792885513204   0.944286122890446   0.625601449869879   1.0000000
B2   B   0.222015765579386   0.444500420759542   0.625595343846538   1.0000000
B2   B   0.555555555555557   0.444444444444443   0.622306576065360   1.0000000
B2   B   0.722228702178878   0.944525353105744   0.625841700792636   1.0000000
B2   B   0.889151321846819   0.444500420759542   0.625595343846538   1.0000000
B2   B   0.055582863770616   0.444499060874726   0.124133233327559   1.0000000
B2   B   0.222159904044121   0.944286122890446   0.124398550130291   1.0000000
B2   B   0.555500939125271   0.944417136229036   0.124133233327559   1.0000000
B2   B   0.388443685128588   0.444543921592296   0.126315799250811   1.0000000
B2   B   0.888963317593578   0.944525353105744   0.124158299207468   1.0000000
B2   B   0.722766903130420   0.444543921592296   0.126315799250811   1.0000000
B2   B   0.222159904044121   0.611207114487212   0.625601449869879   1.0000000
B2   B   0.055474646894324   0.111036682406497   0.625841700792636   1.0000000
B2   B   0.555456078407385   0.611556314871841   0.623684200749169   1.0000000
B2   B   0.388679188113561   0.110691709560844   0.625170170498797   1.0000000
B2   B   0.889308290439318   0.611320811885895   0.625170170498797   1.0000000
B2   B   0.055713877109446   0.611207114487212   0.124398550130291   1.0000000
B2   B   0.722228702178879   0.111036682406459   0.625841700792636   1.0000000
B2   B   0.222015765579385   0.110848678152974   0.124404656153164   1.0000000
B2   B   0.388679188113561   0.611320811885895   0.124829829501376   1.0000000
B2   B   0.722766903130420   0.611556314871841   0.126315799250811   1.0000000
B2   B   0.555499579240369   0.110848678152967   0.124404656153161   1.0000000
B2   B   0.388679188113670   0.611320811885895   0.625170170498797   1.0000000
B2   B   0.888888888888886   0.111111111111114   0.124231093417613   1.0000000
B2   B   0.222222222222221   0.777777777777779   0.625512361530554   1.0000000
B2   B   0.055474646894324   0.277771297821284   0.625841700792636   1.0000000
B2   B   0.388443685128589   0.277233096869034   0.623684200749169   1.0000000
B2   B   0.555499579240369   0.777984234420453   0.625595343846538   1.0000000
B2   B   0.889151321846819   0.777984234420453   0.625595343846538   1.0000000
B2   B   0.722355561643308   0.277644438356823   0.625377138234469   1.0000000
B2   B   0.055713877109464   0.777840095955673   0.124398550130291   1.0000000
B2   B   0.388792885513204   0.777840095955673   0.124398550130291   1.0000000
B2   B   0.221955543380058   0.277644438356823   0.124622861765588   1.0000000
B2   B   0.722355561643308   0.778044456619689   0.124622861765588   1.0000000
B2   B   0.555456078407385   0.277233096869037   0.126315799250811   1.0000000
B2   B   0.888963317593578   0.277771297821284   0.124158299207468   1.0000000
B2   B   0.055582863770616   0.444499060874726   0.625866766672535   1.0000000
B2   B   0.222159904044121   0.944286122890446   0.625601449869879   1.0000000
B2   B   0.555500939125271   0.944417136229036   0.625866766672535   1.0000000
B2   B   0.388443685128589   0.444543921592296   0.623684200749169   1.0000000
B2   B   0.888963317593578   0.944525353105744   0.625841700792636   1.0000000
B2   B   0.055582863770615   0.944417136229036   0.124133233327559   1.0000000
B2   B   0.722766903130420   0.444543921592296   0.623684200749169   1.0000000
B2   B   0.388792885513197   0.944286122890446   0.124398550130291   1.0000000
B2   B   0.222015765579385   0.444500420759537   0.124404656153164   1.0000000
B2   B   0.222159904044121   0.611207114487212   0.124398550130291   1.0000000
B2   B   0.555555555555557   0.444444444444443   0.127693423934714   1.0000000
B2   B   0.722228702178878   0.944525353105744   0.124158299207458   1.0000000
B2   B   0.889151321846819   0.444500420759537   0.124404656153164   1.0000000
B2   B   0.055713877109444   0.611207114487212   0.625601449869879   1.0000000
B2   B   0.222015765579385   0.110848678152967   0.625595343846538   1.0000000
B2   B   0.722766903130420   0.611556314871841   0.623684200749169   1.0000000
B2   B   0.555499579240369   0.110848678152967   0.625595343846538   1.0000000
B2   B   0.888888888888886   0.111111111111114   0.625768906582406   1.0000000


