data_1
_audit_creation_method   'vasp2cif'
_cell_length_a    14.93631414619966
_cell_length_b    14.936314146199727
_cell_length_c    13.341276283792837
_cell_angle_alpha    90.0
_cell_angle_beta    90.0
_cell_angle_gamma    119.99999999999984

_symmetry_space_group_name_H-M    'P 1'
loop_
_atom_site_label
_atom_site_type_symbol
_atom_site_fract_x
_atom_site_fract_y
_atom_site_fract_z
_atom_site_occupancy
Al2   Al   0.464293939834419   0.398813636583877   0.375000000000000   1.0000000
Al2   Al   0.633795051190285   0.483564192261803   0.375000000000000   1.0000000
N2   N   0.111172527340631   0.055566357957309   0.125145141099161   1.0000000
N2   N   0.611220335947768   0.555720613520503   0.120760456510786   1.0000000
N2   N   0.444509670476906   0.055549025407181   0.124898313342818   1.0000000
N2   N   0.944457773276612   0.555572191044229   0.125527504819651   1.0000000
N2   N   0.777864268894441   0.055598801113888   0.124973833443140   1.0000000
N2   N   0.111145787003442   0.722239560168391   0.624652765565217   1.0000000
N2   N   0.444509670476906   0.722293978403066   0.625101686657182   1.0000000
N2   N   0.277840554960070   0.222228677175293   0.624852311473104   1.0000000
N2   N   0.777819638103690   0.722280896996922   0.625697653787396   1.0000000
N2   N   0.611177412408141   0.222202652648584   0.625892640483731   1.0000000
N2   N   0.944529367175371   0.222265142009552   0.624976279271642   1.0000000
N2   N   0.277830400532561   0.722263469424944   0.125149354497680   1.0000000
N2   N   0.111196917267031   0.222265125300179   0.125151961019500   1.0000000
N2   N   0.444520888622273   0.222198819870038   0.124083948400482   1.0000000
N2   N   0.611177412408141   0.722308093092896   0.124107359516265   1.0000000
N2   N   0.944457773276612   0.722218915565720   0.125527504819651   1.0000000
N2   N   0.777853267852260   0.222227998876849   0.124846747627411   1.0000000
N2   N   0.111153017256923   0.888891581762174   0.624769551123187   1.0000000
N2   N   0.444508583712551   0.888920958522934   0.624888136187292   1.0000000
N2   N   0.277840554960070   0.388945211118105   0.624852311473104   1.0000000
N2   N   0.611220335947768   0.388833055760590   0.629239543489217   1.0000000
N2   N   0.777853267852260   0.888958602308730   0.625153252372599   1.0000000
N2   N   0.944497710494213   0.388921471612122   0.624818386775612   1.0000000
N2   N   0.111172527340631   0.388939502716650   0.125145141099161   1.0000000
N2   N   0.277830400532561   0.888900264440947   0.125149354497680   1.0000000
N2   N   0.611183870803813   0.888948360439439   0.125011991244522   1.0000000
N2   N   0.444494741799215   0.388914037566275   0.125307137018852   1.0000000
N2   N   0.944497710494213   0.888909572215421   0.125181613224377   1.0000000
N2   N   0.777819638103690   0.388872074440098   0.124302346212605   1.0000000
N2   N   0.277835339173840   0.555616539177443   0.624894255762514   1.0000000
N2   N   0.111172527340631   0.055566357957309   0.624854858900834   1.0000000
N2   N   0.611220335947768   0.555720613520503   0.629239543489217   1.0000000
N2   N   0.444509670476906   0.055549025407181   0.625101686657182   1.0000000
N2   N   0.944457773276612   0.555572191044229   0.624472495180351   1.0000000
N2   N   0.111153017256923   0.555594768828077   0.125230448876807   1.0000000
N2   N   0.777864268894441   0.055598801113888   0.625026166556860   1.0000000
N2   N   0.277835339173840   0.055552133329735   0.125105744237489   1.0000000
N2   N   0.444520888622273   0.555655402085570   0.124083948400482   1.0000000
N2   N   0.777721841834747   0.555527587584039   0.124848755707886   1.0000000
N2   N   0.611183870803813   0.055568843697695   0.125011991244522   1.0000000
N2   N   0.444520888622273   0.555655402085570   0.625916051599526   1.0000000
N2   N   0.944529367175371   0.055597558499156   0.125023720728363   1.0000000
N2   N   0.277830400532561   0.722263469424944   0.624850645502323   1.0000000
N2   N   0.111196917267031   0.222265125300179   0.624848038980503   1.0000000
N2   N   0.444520888622273   0.222198819870038   0.625916051599526   1.0000000
N2   N   0.611177412408141   0.722308093092896   0.625892640483731   1.0000000
N2   N   0.944457773276612   0.722218915565720   0.624472495180351   1.0000000
N2   N   0.777853267852260   0.222227998876849   0.625153252372599   1.0000000
N2   N   0.111145787003442   0.722239560168391   0.125347234434776   1.0000000
N2   N   0.444509670476906   0.722293978403066   0.124898313342818   1.0000000
N2   N   0.277840554960070   0.222228677175293   0.125147688526897   1.0000000
N2   N   0.777819638103690   0.722280896996922   0.124302346212605   1.0000000
N2   N   0.611177412408141   0.222202652648584   0.124107359516265   1.0000000
N2   N   0.944529367175371   0.222265142009552   0.125023720728363   1.0000000
N2   N   0.111172527340631   0.388939502716650   0.624854858900834   1.0000000
N2   N   0.277830400532561   0.888900264440947   0.624850645502323   1.0000000
N2   N   0.611183870803813   0.888948360439439   0.624988008755479   1.0000000
N2   N   0.444494741799215   0.388914037566275   0.624692862981153   1.0000000
N2   N   0.944497710494213   0.888909572215421   0.624818386775612   1.0000000
N2   N   0.111153017256923   0.888891581762174   0.125230448876807   1.0000000
N2   N   0.777819638103690   0.388872074440098   0.625697653787396   1.0000000
N2   N   0.444508583712551   0.888920958522934   0.125111863812706   1.0000000
N2   N   0.277840554960070   0.388945211118105   0.125147688526897   1.0000000
N2   N   0.277835339173840   0.555616539177443   0.125105744237489   1.0000000
N2   N   0.611220335947768   0.388833055760590   0.120760456510786   1.0000000
N2   N   0.777853267852260   0.888958602308730   0.124846747627411   1.0000000
N2   N   0.944497710494213   0.388921471612122   0.125181613224377   1.0000000
N2   N   0.111153017256923   0.555594768828077   0.624769551123187   1.0000000
N2   N   0.277835339173840   0.055552133329735   0.624894255762514   1.0000000
N2   N   0.777721841834747   0.555527587584039   0.625151244292113   1.0000000
N2   N   0.611183870803813   0.055568843697695   0.624988008755479   1.0000000
N2   N   0.944529367175371   0.055597558499156   0.624976279271642   1.0000000
N2   N   0.056435313716116   0.111944629753597   0.375000000000000   1.0000000
N2   N   0.547566204267760   0.626795544208098   0.375000000000000   1.0000000
N2   N   0.382825401381947   0.099470459586110   0.375000000000000   1.0000000
N2   N   0.891460720797316   0.612397027065329   0.375000000000000   1.0000000
N2   N   0.722361692615823   0.109561357218169   0.375000000000000   1.0000000
N2   N   0.055537143704398   0.777769627621667   0.875000000000000   1.0000000
N2   N   0.388873291960906   0.777771203532403   0.875000000000000   1.0000000
N2   N   0.222203324966695   0.277768329150016   0.875000000000000   1.0000000
N2   N   0.722211175920667   0.777768342158134   0.875000000000000   1.0000000
N2   N   0.555529429995030   0.277759191297093   0.875000000000000   1.0000000
N2   N   0.888880651834750   0.277776245123069   0.875000000000000   1.0000000
N2   N   0.218197249217295   0.775765291275316   0.375000000000000   1.0000000
N2   N   0.056435313716116   0.277824017295855   0.375000000000000   1.0000000
N2   N   0.386484526048448   0.264658222688430   0.375000000000000   1.0000000
N2   N   0.552950476666883   0.784340020770451   0.375000000000000   1.0000000
N2   N   0.888885885746673   0.779454033902199   0.375000000000000   1.0000000
N2   N   0.721758284525549   0.273411647838186   0.375000000000000   1.0000000
N2   N   0.055540031419547   0.944436343472774   0.875000000000000   1.0000000
N2   N   0.388873291960906   0.944435421761832   0.875000000000000   1.0000000
N2   N   0.222202862464117   0.444434640575811   0.875000000000000   1.0000000
N2   N   0.555519822322458   0.444426577827893   0.875000000000000   1.0000000
N2   N   0.722211616462172   0.944437395906287   0.875000000000000   1.0000000
N2   N   0.888880641251675   0.444441539675053   0.875000000000000   1.0000000
N2   N   0.054199854021909   0.443598387279015   0.375000000000000   1.0000000
N2   N   0.217970362690181   0.940296731588459   0.375000000000000   1.0000000
N2   N   0.553448614467580   0.943390973900453   0.375000000000000   1.0000000
N2   N   0.386484526048448   0.455159636693353   0.375000000000000   1.0000000
N2   N   0.889327960494934   0.946067980813205   0.375000000000000   1.0000000
N2   N   0.724693909418464   0.440716528953175   0.375000000000000   1.0000000
N2   N   0.222201952186695   0.611101120879775   0.875000000000000   1.0000000
N2   N   0.055540653681659   0.111102500741325   0.875000000000000   1.0000000
N2   N   0.555529429995030   0.611103572031281   0.875000000000000   1.0000000
N2   N   0.388867935186442   0.111097750422261   0.875000000000000   1.0000000
N2   N   0.888878449992525   0.611105891662931   0.875000000000000   1.0000000
N2   N   0.053419537634329   0.609882477447512   0.375000000000000   1.0000000
N2   N   0.722211616462172   0.111107553889211   0.875000000000000   1.0000000
N2   N   0.219901397056725   0.107859285843934   0.375000000000000   1.0000000
N2   N   0.382825401381947   0.616688275129181   0.375000000000000   1.0000000
N2   N   0.724693909418464   0.617310713798619   0.375000000000000   1.0000000
N2   N   0.552950476666883   0.101943789229766   0.375000000000000   1.0000000
N2   N   0.388867935186442   0.611103518097524   0.875000000000000   1.0000000
N2   N   0.889848470775495   0.111590902054423   0.375000000000000   1.0000000
N2   N   0.222201655079562   0.777767494206448   0.875000000000000   1.0000000
N2   N   0.055540653681659   0.277771486273663   0.875000000000000   1.0000000
N2   N   0.388869680408765   0.277770314470243   0.875000000000000   1.0000000
N2   N   0.555539910045684   0.777770199675356   0.875000000000000   1.0000000
N2   N   0.888880641251675   0.777772434909958   0.875000000000000   1.0000000
N2   N   0.722211175920667   0.277776167095870   0.875000000000000   1.0000000
N2   N   0.053419537634329   0.776870393520149   0.375000000000000   1.0000000
N2   N   0.384774940704684   0.778422352809764   0.375000000000000   1.0000000
N2   N   0.224654233618681   0.278993783476004   0.375000000000000   1.0000000
N2   N   0.721758284525549   0.781679970020698   0.375000000000000   1.0000000
N2   N   0.547566204267760   0.254103993392992   0.375000000000000   1.0000000
N2   N   0.889327960494934   0.276593313015066   0.375000000000000   1.0000000
N2   N   0.055540031419547   0.444437021280107   0.875000000000000   1.0000000
N2   N   0.222201952186695   0.944434164640257   0.875000000000000   1.0000000
N2   N   0.555543156918856   0.944438245126091   0.875000000000000   1.0000000
N2   N   0.388869680408765   0.444432699271862   0.875000000000000   1.0000000
N2   N   0.888880651834750   0.944437740045021   0.875000000000000   1.0000000
N2   N   0.054199854021909   0.943934800076220   0.375000000000000   1.0000000
N2   N   0.722218173788136   0.444447497125617   0.875000000000000   1.0000000
N2   N   0.384774940704684   0.939685921228254   0.375000000000000   1.0000000
N2   N   0.219901397056725   0.445375444546126   0.375000000000000   1.0000000
N2   N   0.217970362690181   0.611006964435063   0.375000000000000   1.0000000
N2   N   0.722361692615823   0.946133668730988   0.375000000000000   1.0000000
N2   N   0.888885885746673   0.442765185177820   0.375000000000000   1.0000000
N2   N   0.055537143704398   0.611100849416057   0.875000000000000   1.0000000
N2   N   0.222202862464117   0.111101555221634   0.875000000000000   1.0000000
N2   N   0.722218173788136   0.611104009995856   0.875000000000000   1.0000000
N2   N   0.555539910045684   0.111103043703662   0.875000000000000   1.0000000
N2   N   0.888879619022235   0.111106476177793   0.875000000000000   1.0000000
B2   B   0.110013606529494   0.054817042462057   0.375000000000000   1.0000000
B2   B   0.604859014010883   0.582253507622819   0.375000000000000   1.0000000
B2   B   0.441146676767291   0.048242098706326   0.375000000000000   1.0000000
B2   B   0.944630697694305   0.553872844655056   0.375000000000000   1.0000000
B2   B   0.779171634702244   0.056252484017789   0.375000000000000   1.0000000
B2   B   0.111121307371626   0.722227320352483   0.875000000000000   1.0000000
B2   B   0.444409897307774   0.722209935324472   0.875000000000000   1.0000000
B2   B   0.277730481780396   0.222202646541747   0.875000000000000   1.0000000
B2   B   0.777780119020218   0.722250728706090   0.875000000000000   1.0000000
B2   B   0.611076166909409   0.222187364046608   0.875000000000000   1.0000000
B2   B   0.944454102154990   0.222212324713295   0.875000000000000   1.0000000
B2   B   0.273965629160532   0.721485171765090   0.375000000000000   1.0000000
B2   B   0.113274735226066   0.223304034279697   0.375000000000000   1.0000000
B2   B   0.436550912482671   0.206810747171199   0.375000000000000   1.0000000
B2   B   0.610422711900147   0.734570560832361   0.375000000000000   1.0000000
B2   B   0.944630697694305   0.724091186372583   0.375000000000000   1.0000000
B2   B   0.778860043906847   0.219615517795735   0.375000000000000   1.0000000
B2   B   0.111116457611186   0.888910740806038   0.875000000000000   1.0000000
B2   B   0.444423911019121   0.888878622176223   0.875000000000000   1.0000000
B2   B   0.277730481780396   0.388861168571978   0.875000000000000   1.0000000
B2   B   0.611044408590497   0.388853900634008   0.875000000000000   1.0000000
B2   B   0.777785723637671   0.888918124295018   0.875000000000000   1.0000000
B2   B   0.944462420005744   0.388865823145395   0.875000000000000   1.0000000
B2   B   0.110013606529494   0.388529897400767   0.375000000000000   1.0000000
B2   B   0.273965629160532   0.885813790728779   0.375000000000000   1.0000000
B2   B   0.611168910193934   0.892750204102913   0.375000000000000   1.0000000
B2   B   0.944540201739324   0.890837997507982   0.375000000000000   1.0000000
B2   B   0.779971262683172   0.383861875912420   0.375000000000000   1.0000000
B2   B   0.277746257112467   0.555532323158995   0.875000000000000   1.0000000
B2   B   0.111103361952738   0.055569232807392   0.875000000000000   1.0000000
B2   B   0.611044408590497   0.555523841289826   0.875000000000000   1.0000000
B2   B   0.444409897307774   0.055533295316636   0.875000000000000   1.0000000
B2   B   0.944469017003442   0.555548458066182   0.875000000000000   1.0000000
B2   B   0.108406024936141   0.554325822228129   0.375000000000000   1.0000000
B2   B   0.777784492404465   0.055558912868904   0.875000000000000   1.0000000
B2   B   0.272943368101151   0.049893479663926   0.375000000000000   1.0000000
B2   B   0.436550912482671   0.563073498644809   0.375000000000000   1.0000000
B2   B   0.786018671986454   0.559676002659896   0.375000000000000   1.0000000
B2   B   0.611168910193934   0.051752039424362   0.375000000000000   1.0000000
B2   B   0.444386120573321   0.555533316034565   0.875000000000000   1.0000000
B2   B   0.945834128469119   0.057104774751687   0.375000000000000   1.0000000
B2   B   0.277763114372973   0.722210555512565   0.875000000000000   1.0000000
B2   B   0.111095533017282   0.222214433175309   0.875000000000000   1.0000000
B2   B   0.444386120573321   0.222186137872092   0.875000000000000   1.0000000
B2   B   0.611076166909409   0.722222136196132   0.875000000000000   1.0000000
B2   B   0.944469017003442   0.722253892270595   0.875000000000000   1.0000000
B2   B   0.777785723637671   0.222200932675973   0.875000000000000   1.0000000
B2   B   0.108268066920446   0.720800700126890   0.375000000000000   1.0000000
B2   B   0.441146676767291   0.726237911394292   0.375000000000000   1.0000000
B2   B   0.277162397984681   0.218938308373892   0.375000000000000   1.0000000
B2   B   0.779971262683172   0.729442720104076   0.375000000000000   1.0000000
B2   B   0.610422711900147   0.209185484401127   0.375000000000000   1.0000000
B2   B   0.945834128469119   0.222062687050775   0.375000000000000   1.0000000
B2   B   0.111103361952738   0.388867462478676   0.875000000000000   1.0000000
B2   B   0.277763114372973   0.888885892193732   0.875000000000000   1.0000000
B2   B   0.611098574446454   0.888891948563729   0.875000000000000   1.0000000
B2   B   0.444385506663756   0.388859419998538   0.875000000000000   1.0000000
B2   B   0.944462420005744   0.888929930193675   0.875000000000000   1.0000000
B2   B   0.108406024936141   0.887413536041353   0.375000000000000   1.0000000
B2   B   0.777780119020218   0.388862723647468   0.875000000000000   1.0000000
B2   B   0.441996015230575   0.887664674281955   0.375000000000000   1.0000000
B2   B   0.277162397984681   0.391557422944117   0.375000000000000   1.0000000
B2   B   0.272943368101151   0.556383221770569   0.375000000000000   1.0000000
B2   B   0.604859014010883   0.355938839721401   0.375000000000000   1.0000000
B2   B   0.778860043906847   0.892577859444437   0.375000000000000   1.0000000
B2   B   0.944540201739324   0.387035537564676   0.375000000000000   1.0000000
B2   B   0.111116457611186   0.555539050138474   0.875000000000000   1.0000000
B2   B   0.277746257112467   0.055547267286806   0.875000000000000   1.0000000
B2   B   0.777774116263993   0.555553724798667   0.875000000000000   1.0000000
B2   B   0.611098574446454   0.055539959216055   0.875000000000000   1.0000000
B2   B   0.944454102154990   0.055575110775028   0.875000000000000   1.0000000
B2   B   0.055673379754425   0.111188096558030   0.124956504552164   1.0000000
B2   B   0.555499550543717   0.611209071324909   0.122413466078682   1.0000000
B2   B   0.388884114732985   0.111029923299586   0.124513794543374   1.0000000
B2   B   0.889079178328971   0.611206255831157   0.124790812175315   1.0000000
B2   B   0.722282504321333   0.111068173870604   0.124687153430854   1.0000000
B2   B   0.055737524935578   0.777887244119092   0.624944919571727   1.0000000
B2   B   0.388928012300220   0.777835917976355   0.625142022234151   1.0000000
B2   B   0.222276609915485   0.277804971624415   0.624901870033981   1.0000000
B2   B   0.722257395177493   0.777979217193692   0.626145781616311   1.0000000
B2   B   0.555499550543717   0.277623812552162   0.627586533921311   1.0000000
B2   B   0.889008952642719   0.277754153564631   0.625259239708369   1.0000000
B2   B   0.222338103493059   0.777835718413200   0.124971808606492   1.0000000
B2   B   0.055673379754425   0.277818616529733   0.124956504552164   1.0000000
B2   B   0.388801461364854   0.277592857644033   0.124686472984086   1.0000000
B2   B   0.555550289583505   0.777893726030228   0.124416445240998   1.0000000
B2   B   0.889043362567350   0.777955077909341   0.124599971202818   1.0000000
B2   B   0.722257395177493   0.277611511317144   0.123854218383685   1.0000000
B2   B   0.055692836370267   0.944548850075498   0.625035455480701   1.0000000
B2   B   0.388928012300220   0.944425427657210   0.625142022234151   1.0000000
B2   B   0.222275598087376   0.444494243438550   0.625004306038734   1.0000000
B2   B   0.555623700881633   0.444478517107481   0.627460353471601   1.0000000
B2   B   0.722282504321333   0.944547663784064   0.625312846569155   1.0000000
B2   B   0.889043362567350   0.444421617991344   0.625400028797183   1.0000000
B2   B   0.055692836370267   0.444477319628099   0.124964544519298   1.0000000
B2   B   0.222316400536365   0.944480375398366   0.124963461417212   1.0000000
B2   B   0.555581730501496   0.944457531917416   0.124843912931135   1.0000000
B2   B   0.388801461364854   0.444541937054164   0.124686472984086   1.0000000
B2   B   0.889008952642719   0.944588132411421   0.124740760291632   1.0000000
B2   B   0.722189979407615   0.444254015153964   0.122099912684532   1.0000000
B2   B   0.222316400536365   0.611169358471335   0.625036538582789   1.0000000
B2   B   0.055673379754425   0.111188096558030   0.625043495447838   1.0000000
B2   B   0.555499550543717   0.611209071324909   0.627586533921311   1.0000000
B2   B   0.388884114732985   0.111029923299586   0.625486205456623   1.0000000
B2   B   0.889079178328971   0.611206255831157   0.625209187824679   1.0000000
B2   B   0.055737524935578   0.611183614149826   0.125055080428275   1.0000000
B2   B   0.722282504321333   0.111068173870604   0.625312846569155   1.0000000
B2   B   0.222275598087376   0.111114687982160   0.124995693961264   1.0000000
B2   B   0.388884114732985   0.611187524766746   0.124513794543374   1.0000000
B2   B   0.722189979407615   0.611269297586997   0.122099912684532   1.0000000
B2   B   0.555550289583505   0.110989896886619   0.124416445240998   1.0000000
B2   B   0.388884114732985   0.611187524766746   0.625486205456623   1.0000000
B2   B   0.889000407021362   0.111166870177356   0.124796469680521   1.0000000
B2   B   0.222338103493059   0.777835718413200   0.625028191393508   1.0000000
B2   B   0.055673379754425   0.277818616529733   0.625043495447838   1.0000000
B2   B   0.388801461364854   0.277592857644033   0.625313527015911   1.0000000
B2   B   0.555550289583505   0.777893726030228   0.625583554759010   1.0000000
B2   B   0.889043362567350   0.777955077909341   0.625400028797183   1.0000000
B2   B   0.722257395177493   0.277611511317144   0.626145781616311   1.0000000
B2   B   0.055737524935578   0.777887244119092   0.125055080428275   1.0000000
B2   B   0.388928012300220   0.777835917976355   0.124857977765851   1.0000000
B2   B   0.222276609915485   0.277804971624415   0.125098129966017   1.0000000
B2   B   0.722257395177493   0.777979217193692   0.123854218383685   1.0000000
B2   B   0.555499550543717   0.277623812552162   0.122413466078682   1.0000000
B2   B   0.889008952642719   0.277754153564631   0.124740760291632   1.0000000
B2   B   0.055692836370267   0.444477319628099   0.625035455480701   1.0000000
B2   B   0.222316400536365   0.944480375398366   0.625036538582789   1.0000000
B2   B   0.555581730501496   0.944457531917416   0.625156087068864   1.0000000
B2   B   0.388801461364854   0.444541937054164   0.625313527015911   1.0000000
B2   B   0.889008952642719   0.944588132411421   0.625259239708369   1.0000000
B2   B   0.055692836370267   0.944548850075498   0.124964544519298   1.0000000
B2   B   0.722189979407615   0.444254015153964   0.627900087315469   1.0000000
B2   B   0.388928012300220   0.944425427657210   0.124857977765851   1.0000000
B2   B   0.222275598087376   0.444494243438550   0.124995693961264   1.0000000
B2   B   0.222316400536365   0.611169358471335   0.124963461417212   1.0000000
B2   B   0.555623700881633   0.444478517107481   0.122539646528405   1.0000000
B2   B   0.722282504321333   0.944547663784064   0.124687153430854   1.0000000
B2   B   0.889043362567350   0.444421617991344   0.124599971202818   1.0000000
B2   B   0.055737524935578   0.611183614149826   0.624944919571727   1.0000000
B2   B   0.222275598087376   0.111114687982160   0.625004306038734   1.0000000
B2   B   0.722189979407615   0.611269297586997   0.627900087315469   1.0000000
B2   B   0.555550289583505   0.110989896886619   0.625583554759010   1.0000000
B2   B   0.889000407021362   0.111166870177356   0.625203530319482   1.0000000


