data_1
_audit_creation_method   'vasp2cif'
_cell_length_a    17.52789999999977
_cell_length_b    17.52789999999977
_cell_length_c    15.0
_cell_angle_alpha    90.0
_cell_angle_beta    90.0
_cell_angle_gamma    119.99999999999916

_symmetry_space_group_name_H-M    'P 1'
loop_
_atom_site_label
_atom_site_type_symbol
_atom_site_fract_x
_atom_site_fract_y
_atom_site_fract_z
_atom_site_occupancy
In2   In   0.436369886597097   0.503900145922547   0.111379371652156   1.0000000
B2   B   0.905598591607451   0.952991285428057   0.110999103291160   1.0000000
B2   B   0.905685236845359   0.095867890343204   0.111049697344399   1.0000000
B2   B   0.905696032619663   0.238562363155328   0.111137060343497   1.0000000
B2   B   0.905685236845359   0.381246040193148   0.111049697344399   1.0000000
B2   B   0.905598591607451   0.524037711427387   0.110999103291160   1.0000000
B2   B   0.904783286607669   0.666563387335029   0.111070472644636   1.0000000
B2   B   0.904783286607669   0.809650304520639   0.111070472644636   1.0000000
B2   B   0.047411461185774   0.951897936714137   0.111004716225593   1.0000000
B2   B   0.047608458959326   0.094606906601528   0.110990604332698   1.0000000
B2   B   0.047768309340026   0.237951759547084   0.111039648114985   1.0000000
B2   B   0.047768309340026   0.381246955039949   0.111039648114985   1.0000000
B2   B   0.047608458959326   0.524431957605785   0.110990604332698   1.0000000
B2   B   0.047411461185774   0.666945641275624   0.111004716225593   1.0000000
B2   B   0.047461954914361   0.809447035859189   0.111002642059653   1.0000000
B2   B   0.190038085315062   0.951708038789872   0.111032813770214   1.0000000
B2   B   0.189936155870905   0.093801895183035   0.111044801962422   1.0000000
B2   B   0.189102188987855   0.235693777192329   0.110989294211337   1.0000000
B2   B   0.189429521322544   0.380429963284763   0.110985358631561   1.0000000
B2   B   0.189102188987855   0.524838817043542   0.110989294211337   1.0000000
B2   B   0.189936155870905   0.667564665935858   0.111044801962422   1.0000000
B2   B   0.190038085315062   0.809762163329185   0.111032813770214   1.0000000
B2   B   0.333034676661112   0.952233396732050   0.111049769692975   1.0000000
B2   B   0.333003523565037   0.093144460378606   0.111073853466705   1.0000000
B2   B   0.332786722069079   0.233842934865290   0.111051131781498   1.0000000
B2   B   0.327893207082621   0.369064922629563   0.111072403752306   1.0000000
B2   B   0.327893207082621   0.530258689700056   0.111072403752306   1.0000000
B2   B   0.332786722069079   0.670374192450767   0.111051131781498   1.0000000
B2   B   0.333003523565037   0.811289468433430   0.111073853466705   1.0000000
B2   B   0.476524498468911   0.953846603463226   0.110985627012664   1.0000000
B2   B   0.476524498468911   0.094108300252677   0.110985627012664   1.0000000
B2   B   0.476814114525956   0.234059848599920   0.110991281517300   1.0000000
B2   B   0.478575835850138   0.374045621452945   0.111064284972817   1.0000000
B2   B   0.478575835850138   0.675960619644180   0.111064284972817   1.0000000
B2   B   0.476814114525956   0.814184671173044   0.110991281517300   1.0000000
B2   B   0.620239034884409   0.954578031553475   0.110941280745036   1.0000000
B2   B   0.620052077642882   0.095740385666950   0.110955576972147   1.0000000
B2   B   0.620239034884409   0.237091408577947   0.110941280745036   1.0000000
B2   B   0.621108994431879   0.379242305573892   0.110977356970439   1.0000000
B2   B   0.620184129998073   0.520744812044900   0.111060027608946   1.0000000
B2   B   0.620184129998073   0.670869723201173   0.111060027608946   1.0000000
B2   B   0.621108994431879   0.813297094104997   0.110977356970439   1.0000000
B2   B   0.763462732690158   0.954231299005529   0.110958184132156   1.0000000
B2   B   0.763160545060962   0.096228945911984   0.111021817358313   1.0000000
B2   B   0.763160545060962   0.238360292839969   0.111021817358313   1.0000000
B2   B   0.763462732690158   0.380661838931654   0.110958184132156   1.0000000
B2   B   0.763215067635534   0.523080228200151   0.111045471145337   1.0000000
B2   B   0.761927950441191   0.666679177844622   0.111128450913765   1.0000000
B2   B   0.763215067635534   0.811565244683383   0.111045471145337   1.0000000
N2   N   0.952325650656354   0.904598219892692   0.110999265098144   1.0000000
N2   N   0.952872390057441   0.047840181612361   0.110983026588461   1.0000000
N2   N   0.953166223810080   0.190903908596554   0.111094597931979   1.0000000
N2   N   0.953166223810080   0.333689297331537   0.111094597931979   1.0000000
N2   N   0.952872390057441   0.476459190563073   0.110983026588461   1.0000000
N2   N   0.952325650656354   0.619156124438658   0.110999265098144   1.0000000
N2   N   0.951896259041484   0.761662476358236   0.111033271527116   1.0000000
N2   N   0.094864384781766   0.904342395194770   0.110990210772484   1.0000000
N2   N   0.095040102506701   0.046973134269177   0.110984751307684   1.0000000
N2   N   0.094944992108051   0.189779419482321   0.110973134700044   1.0000000
N2   N   0.095265035899007   0.333346864786501   0.110998559685097   1.0000000
N2   N   0.094944992108051   0.476594266299731   0.110973134700044   1.0000000
N2   N   0.095040102506701   0.619495661912523   0.110984751307684   1.0000000
N2   N   0.094864384781766   0.761952394818001   0.110990210772484   1.0000000
N2   N   0.237858716787358   0.904644561009195   0.111025380664452   1.0000000
N2   N   0.237861720738322   0.046679837332660   0.111055046429033   1.0000000
N2   N   0.237735805989569   0.188994535031558   0.111008850615137   1.0000000
N2   N   0.236275696579515   0.331731049295430   0.110980482899057   1.0000000
N2   N   0.236275696579515   0.475973340958082   0.110980482899057   1.0000000
N2   N   0.237735805989569   0.620169964633012   0.111008850615137   1.0000000
N2   N   0.237861720738322   0.762610577080658   0.111055046429033   1.0000000
N2   N   0.381205737724911   0.905774419795721   0.111027359300244   1.0000000
N2   N   0.381205737724911   0.046860011604189   0.111027359300244   1.0000000
N2   N   0.381422023584663   0.187948736527153   0.111036509832573   1.0000000
N2   N   0.381973477290720   0.328836816799002   0.111056515703813   1.0000000
N2   N   0.381973477290720   0.624565354166730   0.111056515703813   1.0000000
N2   N   0.381422023584663   0.764901980732496   0.111036509832573   1.0000000
N2   N   0.524975281736272   0.907920068099151   0.110937096665496   1.0000000
N2   N   0.524815363700340   0.048121172909672   0.110952460314738   1.0000000
N2   N   0.524975281736272   0.188483907312138   0.110937096665496   1.0000000
N2   N   0.525752564224853   0.328271261911791   0.110987435445152   1.0000000
N2   N   0.528083495516134   0.466727804252518   0.111055490840662   1.0000000
N2   N   0.528083495516134   0.632784384938602   0.111055490840662   1.0000000
N2   N   0.525752564224853   0.768909995988088   0.110987435445152   1.0000000
N2   N   0.668455538623855   0.907546018978954   0.110920006757212   1.0000000
N2   N   0.668087363051134   0.048967682998924   0.110947686155505   1.0000000
N2   N   0.668087363051134   0.190546662171226   0.110947686155505   1.0000000
N2   N   0.668455538623855   0.332338213319918   0.110920006757212   1.0000000
N2   N   0.668912032737850   0.474774789224069   0.111001675872239   1.0000000
N2   N   0.665315906822148   0.618372300249068   0.111086992727877   1.0000000
N2   N   0.668912032737850   0.765565937188765   0.111001675872239   1.0000000
N2   N   0.810703454607286   0.906138713993759   0.110976196071857   1.0000000
N2   N   0.810849672860615   0.048861130171282   0.110991186810303   1.0000000
N2   N   0.810776457766501   0.191101719942254   0.111072174644556   1.0000000
N2   N   0.810849672860615   0.333415524807337   0.110991186810303   1.0000000
N2   N   0.810703454607286   0.475993434287556   0.110976196071857   1.0000000
N2   N   0.809207666965343   0.618757034373073   0.111098143766172   1.0000000
N2   N   0.809207666965343   0.761879326267275   0.111098143766172   1.0000000


