data_1
_audit_creation_method   'vasp2cif'
_cell_length_a    17.52789999999977
_cell_length_b    17.52789999999977
_cell_length_c    15.0
_cell_angle_alpha    90.0
_cell_angle_beta    90.0
_cell_angle_gamma    119.99999999999916

_symmetry_space_group_name_H-M    'P 1'
loop_
_atom_site_label
_atom_site_type_symbol
_atom_site_fract_x
_atom_site_fract_y
_atom_site_fract_z
_atom_site_occupancy
B2   B   0.905194793134465   0.952712341753759   0.108135942667753   1.0000000
B2   B   0.904745400197525   0.095256346494474   0.105476565238319   1.0000000
B2   B   0.904603848355485   0.238025702652183   0.104953668443582   1.0000000
B2   B   0.904738432650090   0.380915507650864   0.106724657602830   1.0000000
B2   B   0.905198097239524   0.523909773079000   0.109398534811290   1.0000000
B2   B   0.905155076224851   0.666865392699920   0.110740567162023   1.0000000
B2   B   0.905155333755427   0.809735458822220   0.110239829395558   1.0000000
B2   B   0.047707970079540   0.952293753285427   0.107147538099891   1.0000000
B2   B   0.047289373588143   0.094806927337769   0.108135942194752   1.0000000
B2   B   0.047017033307572   0.237659225033384   0.110016148723595   1.0000000
B2   B   0.046992655013140   0.380773122240424   0.110682473535674   1.0000000
B2   B   0.047271047039697   0.523914064527092   0.109418948620479   1.0000000
B2   B   0.047704409661889   0.666845494945162   0.108004228048710   1.0000000
B2   B   0.047742054204657   0.809607350742463   0.107051571070980   1.0000000
B2   B   0.190394398950500   0.952259708888403   0.107051569544983   1.0000000
B2   B   0.190266242213935   0.094846378952656   0.110239825271560   1.0000000
B2   B   0.189055518862351   0.236638084221000   0.115833964473245   1.0000000
B2   B   0.188923733296715   0.380163989382955   0.118651986342728   1.0000000
B2   B   0.189050338749782   0.523856425454493   0.116656710416844   1.0000000
B2   B   0.190258433297115   0.666864950968768   0.111190731918318   1.0000000
B2   B   0.190399833574185   0.809601860966742   0.107405812661179   1.0000000
B2   B   0.333156240759936   0.952297314171972   0.108004230462707   1.0000000
B2   B   0.333136321276958   0.094846663695151   0.110740562785023   1.0000000
B2   B   0.333027586628597   0.237462320326516   0.115170554060708   1.0000000
B2   B   0.330010649763092   0.378224304030130   0.115703139664278   1.0000000
B2   B   0.330006826991449   0.523184631123979   0.115997391601680   1.0000000
B2   B   0.333006494858106   0.666995207915873   0.115834035172578   1.0000000
B2   B   0.333136702351180   0.809743195545993   0.111190735451321   1.0000000
B2   B   0.476087622891994   0.952730533890364   0.109418953931481   1.0000000
B2   B   0.476091968426919   0.094803725436623   0.109398543504290   1.0000000
B2   B   0.476162967945167   0.236639408705965   0.116480842568573   1.0000000
B2   B   0.476826934277597   0.378232869625539   0.115772443300237   1.0000000
B2   B   0.476817153308995   0.669995030348632   0.115997392115686   1.0000000
B2   B   0.476145290335627   0.810951348318175   0.116656716153844   1.0000000
B2   B   0.619228616731515   0.953009029404003   0.110682475642675   1.0000000
B2   B   0.619086162697014   0.095263254631919   0.106724658688831   1.0000000
B2   B   0.619252368330564   0.237645313757608   0.111066232420422   1.0000000
B2   B   0.619835980288481   0.380165753920626   0.119011909674809   1.0000000
B2   B   0.621768699344687   0.523174732925412   0.115772438042242   1.0000000
B2   B   0.621777345424964   0.669991073952798   0.115703139377275   1.0000000
B2   B   0.619837753777065   0.811078036106263   0.118651981994725   1.0000000
B2   B   0.762342515494601   0.952984686219491   0.110016150949591   1.0000000
B2   B   0.761975993108874   0.095397828178385   0.104953670846580   1.0000000
B2   B   0.761991546565321   0.238010158614634   0.105493007690566   1.0000000
B2   B   0.762356508626343   0.380749387100401   0.111066224013422   1.0000000
B2   B   0.763362343470146   0.523838714861850   0.116480834604576   1.0000000
B2   B   0.762539338444595   0.666974093916478   0.115170562688708   1.0000000
B2   B   0.763363587203065   0.810946197819614   0.115833966947242   1.0000000
Si2   Si   0.476178123388573   0.523823532158394   0.066177193258529   1.0000000
N2   N   0.952566939277343   0.904885569906786   0.107991713528622   1.0000000
N2   N   0.952361454246357   0.047640263063649   0.106129372883283   1.0000000
N2   N   0.952121641394947   0.190344703942131   0.105671807046943   1.0000000
N2   N   0.952111960239821   0.333205013127709   0.106451780677548   1.0000000
N2   N   0.952355676850682   0.476151046969982   0.107605512789452   1.0000000
N2   N   0.952573571296519   0.619122899625128   0.108950187353829   1.0000000
N2   N   0.952595494809255   0.762019609488579   0.108785766046762   1.0000000
N2   N   0.095258382387084   0.904743370080868   0.106476728884773   1.0000000
N2   N   0.095116135531138   0.047434779537642   0.107991720025619   1.0000000
N2   N   0.094330135620865   0.189701968576380   0.111203849583151   1.0000000
N2   N   0.094201723824955   0.332806445173698   0.113372990988124   1.0000000
N2   N   0.094310942888004   0.476051097548417   0.112292095056579   1.0000000
N2   N   0.095105067903069   0.619128706196997   0.109110278901654   1.0000000
N2   N   0.095253815735087   0.761963686522184   0.106898583699102   1.0000000
N2   N   0.238038025638825   0.904747895022940   0.106898584591103   1.0000000
N2   N   0.237982119888432   0.047406274154678   0.108785758623764   1.0000000
N2   N   0.237663296131185   0.189915474901569   0.114154548519788   1.0000000
N2   N   0.235570270736246   0.331284950844344   0.120509624903852   1.0000000
N2   N   0.235571109904570   0.475687988598116   0.120899934986073   1.0000000
N2   N   0.237649768329390   0.619190360115792   0.115114075416392   1.0000000
N2   N   0.237966019869576   0.762035614325220   0.109424932771138   1.0000000
N2   N   0.380872964906018   0.904896557880009   0.109110283051657   1.0000000
N2   N   0.380878827561777   0.047428179623594   0.108950195101829   1.0000000
N2   N   0.380826507649196   0.189913748563268   0.114575062330265   1.0000000
N2   N   0.380697623653581   0.332796872746265   0.115160752538091   1.0000000
N2   N   0.372753025781487   0.472090056844474   0.108280331426154   1.0000000
N2   N   0.380687491130031   0.619314306828899   0.115624792971928   1.0000000
N2   N   0.380811378373084   0.762351938550673   0.115114080037392   1.0000000
N2   N   0.523950634679463   0.905690652628071   0.112292108834579   1.0000000
N2   N   0.523850611379131   0.047645984909327   0.107605513234458   1.0000000
N2   N   0.523965691138864   0.189700153561361   0.112339816769720   1.0000000
N2   N   0.524309949163846   0.331298771502412   0.120870972398141   1.0000000
N2   N   0.527924089881925   0.472077506742959   0.108144832734570   1.0000000
N2   N   0.527911602438676   0.627248656357621   0.108280333004156   1.0000000
N2   N   0.524313794014939   0.764430746423407   0.120899932170072   1.0000000
N2   N   0.667195345438270   0.905800023648230   0.113372988775124   1.0000000
N2   N   0.666796656603155   0.047889694009134   0.106451779209552   1.0000000
N2   N   0.666810608211236   0.190336968146777   0.106791289188223   1.0000000
N2   N   0.667200605603113   0.332801204945924   0.114084759404307   1.0000000
N2   N   0.668702892629730   0.475691766846222   0.120870951999142   1.0000000
N2   N   0.667204757897586   0.619304070891390   0.115160755173096   1.0000000
N2   N   0.668716715609440   0.764431486731675   0.120509617772859   1.0000000
N2   N   0.810299743939850   0.905671579413081   0.111203849959156   1.0000000
N2   N   0.809657021334815   0.047880067677993   0.105671816733943   1.0000000
N2   N   0.809527440710765   0.190474213981263   0.103685417040956   1.0000000
N2   N   0.809664769961377   0.333191076949760   0.106791283248228   1.0000000
N2   N   0.810301737993555   0.476036063311126   0.112339796258717   1.0000000
N2   N   0.810087972803675   0.619175196398011   0.114575077683268   1.0000000
N2   N   0.810086187192588   0.762338395652673   0.114154559815783   1.0000000


