data_1
_audit_creation_method   'vasp2cif'
_cell_length_a    17.52789999999977
_cell_length_b    17.52789999999977
_cell_length_c    15.0
_cell_angle_alpha    90.0
_cell_angle_beta    90.0
_cell_angle_gamma    119.99999999999916

_symmetry_space_group_name_H-M    'P 1'
loop_
_atom_site_label
_atom_site_type_symbol
_atom_site_fract_x
_atom_site_fract_y
_atom_site_fract_z
_atom_site_occupancy
B2   B   0.904580922212579   0.952298307784438   0.111025424062839   1.0000000
B2   B   0.905057503320933   0.095385929841358   0.111034278699631   1.0000000
B2   B   0.905052669355431   0.238205816468443   0.111041896160616   1.0000000
B2   B   0.904571797629178   0.380835077150846   0.110936676118099   1.0000000
B2   B   0.903749031808229   0.523412594005085   0.110967891621220   1.0000000
B2   B   0.903791173685941   0.666178906621008   0.111043910716314   1.0000000
B2   B   0.903721574143802   0.808872198962741   0.111008335756947   1.0000000
B2   B   0.047430895051711   0.952398684016236   0.111030229473271   1.0000000
B2   B   0.048193956889617   0.095731296499737   0.111015486884522   1.0000000
B2   B   0.048418037132054   0.238468735521805   0.110969157462761   1.0000000
B2   B   0.048183221244845   0.380998180876005   0.110944644384317   1.0000000
B2   B   0.047422540649819   0.523586652167671   0.110909155574958   1.0000000
B2   B   0.046947461799202   0.666309527860542   0.111001864189037   1.0000000
B2   B   0.046961874359692   0.809205095957912   0.110946465912019   1.0000000
B2   B   0.190098924236670   0.952191034037656   0.110968811896227   1.0000000
B2   B   0.191116798150106   0.095901274290442   0.110792679260452   1.0000000
B2   B   0.192104999403548   0.239249481798180   0.110522971007712   1.0000000
B2   B   0.192095817579854   0.381405490195196   0.111435489859851   1.0000000
B2   B   0.191084611249011   0.523758843011189   0.111252236754572   1.0000000
B2   B   0.190080524508210   0.666471020264770   0.111044695480035   1.0000000
B2   B   0.190007076464726   0.809294601220272   0.110971643550777   1.0000000
B2   B   0.333067011780644   0.952193185781580   0.111043997793820   1.0000000
B2   B   0.333056583797873   0.094866019194565   0.110934100213993   1.0000000
B2   B   0.335165382660480   0.239095251370506   0.108852426719813   1.0000000
B2   B   0.337151230028039   0.382881624694200   0.111109382992635   1.0000000
B2   B   0.335117095359309   0.524639418416439   0.113413400687671   1.0000000
B2   B   0.333021923670372   0.666746630219716   0.111233245204223   1.0000000
B2   B   0.333069926530918   0.809461883777540   0.111013051047752   1.0000000
B2   B   0.476038369869767   0.952315378503397   0.110978259555092   1.0000000
B2   B   0.475984635556425   0.095352096772970   0.111080739676497   1.0000000
B2   B   0.475386750454182   0.238026591203561   0.111739698121813   1.0000000
B2   B   0.475352266458227   0.665958692588402   0.110445116011629   1.0000000
B2   B   0.475983137621827   0.809219864225789   0.110934694257701   1.0000000
B2   B   0.618950414174028   0.952347203678242   0.111036289120808   1.0000000
B2   B   0.618941360284307   0.095171764112829   0.110917153541896   1.0000000
B2   B   0.618699124101855   0.237816455658316   0.111301780652665   1.0000000
B2   B   0.617075249576807   0.380156785630271   0.111927689361527   1.0000000
B2   B   0.617075924220819   0.665480718531751   0.110107696436732   1.0000000
B2   B   0.618703240924996   0.809461102546043   0.110651084395206   1.0000000
B2   B   0.761839879860870   0.952296647826852   0.111030078101301   1.0000000
B2   B   0.761988840374563   0.095272370281615   0.111041660359647   1.0000000
B2   B   0.761829570069208   0.238088914326254   0.110995356193983   1.0000000
B2   B   0.760969617494780   0.380672866756266   0.111050997604256   1.0000000
B2   B   0.759924424823231   0.523966257057443   0.110746344357702   1.0000000
B2   B   0.759859647980708   0.664450744330854   0.111320220819909   1.0000000
B2   B   0.760971540211261   0.808862139477245   0.110931955064154   1.0000000
C2   C   0.479369696899366   0.382758082964102   0.110511193405282   1.0000000
C2   C   0.479316990290063   0.525314546493645   0.112066498789105   1.0000000
C2   C   0.520054539518431   0.474411368602973   0.111531791643141   1.0000000
N2   N   0.952034131169646   0.904562503081496   0.110966853636840   1.0000000
N2   N   0.952790967534242   0.047875271956185   0.111003527807458   1.0000000
N2   N   0.953020747603256   0.190777602503442   0.111006233841590   1.0000000
N2   N   0.952779147162769   0.333453610949902   0.110974532690166   1.0000000
N2   N   0.952038309852322   0.476024232071844   0.110937637140544   1.0000000
N2   N   0.951711556907014   0.618701093508860   0.110987013768008   1.0000000
N2   N   0.951713293012555   0.761573832475758   0.110991388013016   1.0000000
N2   N   0.094910386789783   0.904641328287103   0.110927753091697   1.0000000
N2   N   0.095756161081527   0.048106573459913   0.111106525145172   1.0000000
N2   N   0.096599129585614   0.191352758678529   0.110906550596595   1.0000000
N2   N   0.096588847114287   0.333776221850309   0.110972185855667   1.0000000
N2   N   0.095734997239760   0.476188145181670   0.110827611622577   1.0000000
N2   N   0.094895690214872   0.618825332629591   0.110993524278233   1.0000000
N2   N   0.094761548624094   0.761663844147936   0.110941987790643   1.0000000
N2   N   0.237791703233301   0.904621960635767   0.110949934906643   1.0000000
N2   N   0.237979058412352   0.047622236960438   0.110953466229722   1.0000000
N2   N   0.239767146908330   0.191887375002102   0.109975007365621   1.0000000
N2   N   0.241365344579639   0.334967909324055   0.110960068859327   1.0000000
N2   N   0.239733386072565   0.476428431190985   0.112068362390930   1.0000000
N2   N   0.237944104394032   0.618906396406358   0.111116098387371   1.0000000
N2   N   0.237783691540238   0.761741706584092   0.111019104460152   1.0000000
N2   N   0.380750450261123   0.904669945222752   0.110996748683806   1.0000000
N2   N   0.380729998301524   0.047460065841114   0.111119373349224   1.0000000
N2   N   0.380706504796428   0.190055446317764   0.110473924765264   1.0000000
N2   N   0.385202201497584   0.335337204333303   0.107100152890217   1.0000000
N2   N   0.385169512296423   0.478484179337568   0.115287687903421   1.0000000
N2   N   0.380670752565992   0.619220180117551   0.111735296170559   1.0000000
N2   N   0.380716190396196   0.761843110703302   0.110952680170639   1.0000000
N2   N   0.523613682239352   0.904544213592500   0.111047090998167   1.0000000
N2   N   0.523610874758773   0.047657466728246   0.110858425171458   1.0000000
N2   N   0.523409872252229   0.190802765256832   0.111433831348145   1.0000000
N2   N   0.521580641215383   0.333320796596886   0.113111146563022   1.0000000
N2   N   0.521568256543249   0.616913260123796   0.109126950419468   1.0000000
N2   N   0.523404773799664   0.761202288144500   0.110541035001970   1.0000000
N2   N   0.666480072819968   0.904733930984176   0.110991382460716   1.0000000
N2   N   0.666612649271603   0.047592361183168   0.110988325408484   1.0000000
N2   N   0.666470924050833   0.190311313450970   0.110943685521697   1.0000000
N2   N   0.665519624088958   0.332507924555968   0.111486785006661   1.0000000
N2   N   0.666332458095311   0.471900718433792   0.109963133534244   1.0000000
N2   N   0.666229777760777   0.622874682282883   0.111882871840735   1.0000000
N2   N   0.665524372464794   0.761581235112350   0.110447350078879   1.0000000
N2   N   0.809210724575288   0.904536236453894   0.111039220833545   1.0000000
N2   N   0.809697240365145   0.047700110793507   0.111027446497166   1.0000000
N2   N   0.809692167455914   0.190547883020116   0.111037127702659   1.0000000
N2   N   0.809200489249345   0.333226703430579   0.110917309521094   1.0000000
N2   N   0.808278336940366   0.475698331190168   0.110913494756796   1.0000000
N2   N   0.808715096671479   0.618632404359281   0.111058689345667   1.0000000
N2   N   0.808241833317574   0.761097332650793   0.111059721447228   1.0000000


