data_1
_audit_creation_method   'vasp2cif'
_cell_length_a    14.93631414619966
_cell_length_b    14.936314146199727
_cell_length_c    13.341276283792837
_cell_angle_alpha    90.0
_cell_angle_beta    90.0
_cell_angle_gamma    119.99999999999984

_symmetry_space_group_name_H-M    'P 1'
loop_
_atom_site_label
_atom_site_type_symbol
_atom_site_fract_x
_atom_site_fract_y
_atom_site_fract_z
_atom_site_occupancy
Si2   Si   0.421818777679068   0.377576055506198   0.375000000000000   1.0000000
Si2   Si   0.570323092573934   0.451828212953631   0.375000000000000   1.0000000
N2   N   0.111495039114419   0.055755673909239   0.125136620901316   1.0000000
N2   N   0.611624188772845   0.556000748953300   0.122878052346689   1.0000000
N2   N   0.444841867239870   0.055743222745603   0.125093480200614   1.0000000
N2   N   0.944815354193791   0.555734388507000   0.125089296980746   1.0000000
N2   N   0.778190031114714   0.055761682224025   0.124927772981313   1.0000000
N2   N   0.111462208413334   0.722397770873332   0.624966935894934   1.0000000
N2   N   0.444841867239870   0.722431977827603   0.624906519799386   1.0000000
N2   N   0.278171433812692   0.222391991176704   0.625021462315513   1.0000000
N2   N   0.778211726198824   0.722514139483234   0.625241868770379   1.0000000
N2   N   0.611554827069921   0.222358615396782   0.625257787931657   1.0000000
N2   N   0.944863020788412   0.222407641379462   0.625037053679622   1.0000000
N2   N   0.278172275819113   0.722431598143165   0.125025375866600   1.0000000
N2   N   0.111516533352598   0.222424933342963   0.125225132408803   1.0000000
N2   N   0.444872420643125   0.222432218153215   0.124859811346770   1.0000000
N2   N   0.611554827069921   0.722529545006469   0.124742212068343   1.0000000
N2   N   0.944815354193791   0.722414299020125   0.125089296980746   1.0000000
N2   N   0.778210602472985   0.222378502624099   0.124933937626441   1.0000000
N2   N   0.111487532566074   0.889085678295448   0.624943376548452   1.0000000
N2   N   0.444837040063340   0.889085186698333   0.624990925067796   1.0000000
N2   N   0.278171433812692   0.389112775969317   0.625021462315513   1.0000000
N2   N   0.611624188772845   0.388956773152877   0.627121947653312   1.0000000
N2   N   0.778210602472985   0.889165433182214   0.625066062373560   1.0000000
N2   N   0.944855146943238   0.389054475864176   0.625001165708462   1.0000000
N2   N   0.111495039114419   0.389072698538508   0.125136620901316   1.0000000
N2   N   0.278172275819113   0.889074011009278   0.125025375866600   1.0000000
N2   N   0.611530376979643   0.889127779132264   0.124971170029862   1.0000000
N2   N   0.444750277835910   0.389041805584619   0.122285765590303   1.0000000
N2   N   0.944855146943238   0.889134004412394   0.124998834291538   1.0000000
N2   N   0.778211726198824   0.389030920048918   0.124758131229622   1.0000000
N2   N   0.278198641429122   0.555792894749084   0.624846312245891   1.0000000
N2   N   0.111495039114419   0.055755673909239   0.624863379098687   1.0000000
N2   N   0.611624188772845   0.556000748953300   0.627121947653312   1.0000000
N2   N   0.444841867239870   0.055743222745603   0.624906519799386   1.0000000
N2   N   0.944815354193791   0.555734388507000   0.624910703019253   1.0000000
N2   N   0.111487532566074   0.555735187603954   0.125056623451549   1.0000000
N2   N   0.778190031114714   0.055761682224025   0.625072227018688   1.0000000
N2   N   0.278198641429122   0.055739080013373   0.125153687754109   1.0000000
N2   N   0.444872420643125   0.555773535823246   0.124859811346770   1.0000000
N2   N   0.778128993097014   0.555731163215173   0.124899560533311   1.0000000
N2   N   0.611530376979643   0.055735931180710   0.124971170029862   1.0000000
N2   N   0.444872420643125   0.555773535823246   0.625140188653231   1.0000000
N2   N   0.944863020788412   0.055788712742285   0.124962946320377   1.0000000
N2   N   0.278172275819113   0.722431598143165   0.624974624133399   1.0000000
N2   N   0.111516533352598   0.222424933342963   0.624774867591197   1.0000000
N2   N   0.444872420643125   0.222432218153215   0.625140188653231   1.0000000
N2   N   0.611554827069921   0.722529545006469   0.625257787931657   1.0000000
N2   N   0.944815354193791   0.722414299020125   0.624910703019253   1.0000000
N2   N   0.778210602472985   0.222378502624099   0.625066062373560   1.0000000
N2   N   0.111462208413334   0.722397770873332   0.125033064105066   1.0000000
N2   N   0.444841867239870   0.722431977827603   0.125093480200614   1.0000000
N2   N   0.278171433812692   0.222391991176704   0.124978537684489   1.0000000
N2   N   0.778211726198824   0.722514139483234   0.124758131229622   1.0000000
N2   N   0.611554827069921   0.222358615396782   0.124742212068343   1.0000000
N2   N   0.944863020788412   0.222407641379462   0.124962946320377   1.0000000
N2   N   0.111495039114419   0.389072698538508   0.624863379098687   1.0000000
N2   N   0.278172275819113   0.889074011009278   0.624974624133399   1.0000000
N2   N   0.611530376979643   0.889127779132264   0.625028829970139   1.0000000
N2   N   0.444750277835910   0.389041805584619   0.627714234409698   1.0000000
N2   N   0.944855146943238   0.889134004412394   0.625001165708462   1.0000000
N2   N   0.111487532566074   0.889085678295448   0.125056623451549   1.0000000
N2   N   0.778211726198824   0.389030920048918   0.625241868770379   1.0000000
N2   N   0.444837040063340   0.889085186698333   0.125009074932204   1.0000000
N2   N   0.278171433812692   0.389112775969317   0.124978537684489   1.0000000
N2   N   0.278198641429122   0.555792894749084   0.125153687754109   1.0000000
N2   N   0.611624188772845   0.388956773152877   0.122878052346689   1.0000000
N2   N   0.778210602472985   0.889165433182214   0.124933937626441   1.0000000
N2   N   0.944855146943238   0.389054475864176   0.124998834291538   1.0000000
N2   N   0.111487532566074   0.555735187603954   0.624943376548452   1.0000000
N2   N   0.278198641429122   0.055739080013373   0.624846312245891   1.0000000
N2   N   0.778128993097014   0.555731163215173   0.625100439466689   1.0000000
N2   N   0.611530376979643   0.055735931180710   0.625028829970139   1.0000000
N2   N   0.944863020788412   0.055788712742285   0.625037053679622   1.0000000
N2   N   0.054527050491572   0.110398761951904   0.375000000000000   1.0000000
N2   N   0.555283660490216   0.623268141356460   0.375000000000000   1.0000000
N2   N   0.386271574842925   0.103140858449626   0.375000000000000   1.0000000
N2   N   0.890542925741710   0.611938129537524   0.375000000000000   1.0000000
N2   N   0.722784373334366   0.110042574809066   0.375000000000000   1.0000000
N2   N   0.055212028917905   0.777605810140529   0.875000000000000   1.0000000
N2   N   0.388532198484031   0.777602258721401   0.875000000000000   1.0000000
N2   N   0.221878354954488   0.277605844143912   0.875000000000000   1.0000000
N2   N   0.721862135698880   0.777574832603513   0.875000000000000   1.0000000
N2   N   0.555179019540582   0.277586668852153   0.875000000000000   1.0000000
N2   N   0.888542648516525   0.277610650735775   0.875000000000000   1.0000000
N2   N   0.220782388148500   0.777057860740919   0.375000000000000   1.0000000
N2   N   0.054527050491572   0.277461621873004   0.375000000000000   1.0000000
N2   N   0.374700370691258   0.254094089900778   0.375000000000000   1.0000000
N2   N   0.554986581124670   0.783010976309614   0.375000000000000   1.0000000
N2   N   0.892835715584678   0.781707943461455   0.375000000000000   1.0000000
N2   N   0.724102641309694   0.274997152049641   0.375000000000000   1.0000000
N2   N   0.055205008503532   0.944270246506448   0.875000000000000   1.0000000
N2   N   0.388532198484031   0.944263273095965   0.875000000000000   1.0000000
N2   N   0.221873728061479   0.444270815343781   0.875000000000000   1.0000000
N2   N   0.555212892786951   0.444273113060140   0.875000000000000   1.0000000
N2   N   0.721869371213171   0.944260540732152   0.875000000000000   1.0000000
N2   N   0.888553043680199   0.444281758076181   0.875000000000000   1.0000000
N2   N   0.054329750117368   0.444883270703860   0.375000000000000   1.0000000
N2   N   0.220205586976054   0.941199706166999   0.375000000000000   1.0000000
N2   N   0.555003501449360   0.944168417391345   0.375000000000000   1.0000000
N2   N   0.374700370691258   0.453939614123816   0.375000000000000   1.0000000
N2   N   0.889640052113026   0.945874494840220   0.375000000000000   1.0000000
N2   N   0.732516232563289   0.443249568695594   0.375000000000000   1.0000000
N2   N   0.221871555963607   0.610939046136236   0.875000000000000   1.0000000
N2   N   0.055201853869075   0.110933749903513   0.875000000000000   1.0000000
N2   N   0.555179019540582   0.610925684021763   0.875000000000000   1.0000000
N2   N   0.388530334234726   0.110926871497803   0.875000000000000   1.0000000
N2   N   0.888567790575028   0.610950561954185   0.875000000000000   1.0000000
N2   N   0.055256649941030   0.611404353143669   0.375000000000000   1.0000000
N2   N   0.721869371213171   0.110942163814352   0.875000000000000   1.0000000
N2   N   0.215427348456610   0.102773014205559   0.375000000000000   1.0000000
N2   N   0.386271574842925   0.616464049726642   0.375000000000000   1.0000000
N2   N   0.732516232563289   0.622599997201032   0.375000000000000   1.0000000
N2   N   0.554986581124670   0.105308938148394   0.375000000000000   1.0000000
N2   N   0.388530334234726   0.610936796070265   0.875000000000000   1.0000000
N2   N   0.889125197982515   0.111229265657929   0.375000000000000   1.0000000
N2   N   0.221874525468399   0.777603929400868   0.875000000000000   1.0000000
N2   N   0.055201853869075   0.277601437298898   0.875000000000000   1.0000000
N2   N   0.388526861747975   0.277608745855782   0.875000000000000   1.0000000
N2   N   0.555199348769892   0.777601154726561   0.875000000000000   1.0000000
N2   N   0.888553043680199   0.777604618937353   0.875000000000000   1.0000000
N2   N   0.721862135698880   0.277620636428705   0.875000000000000   1.0000000
N2   N   0.055256649941030   0.777185630130695   0.375000000000000   1.0000000
N2   N   0.387220411838281   0.779057201895441   0.375000000000000   1.0000000
N2   N   0.220042038389679   0.276687685861507   0.375000000000000   1.0000000
N2   N   0.724102641309694   0.782438822593390   0.375000000000000   1.0000000
N2   N   0.555283660490216   0.265348852467091   0.375000000000000   1.0000000
N2   N   0.889640052113026   0.277098890606141   0.375000000000000   1.0000000
N2   N   0.055205008503532   0.444268095330412   0.875000000000000   1.0000000
N2   N   0.221871555963607   0.944265843160711   0.875000000000000   1.0000000
N2   N   0.555206825927620   0.944270079630475   0.875000000000000   1.0000000
N2   N   0.388526861747975   0.444251449225527   0.875000000000000   1.0000000
N2   N   0.888542648516525   0.944265331114084   0.875000000000000   1.0000000
N2   N   0.054329750117368   0.942779812746837   0.375000000000000   1.0000000
N2   N   0.721889812018532   0.444300772784437   0.875000000000000   1.0000000
N2   N   0.387220411838281   0.941496543276176   0.375000000000000   1.0000000
N2   N   0.215427348456610   0.445987667584386   0.375000000000000   1.0000000
N2   N   0.220205586976054   0.612339214142393   0.375000000000000   1.0000000
N2   N   0.722784373334366   0.946075131858637   0.375000000000000   1.0000000
N2   N   0.892835715584678   0.444461105456561   0.375000000000000   1.0000000
N2   N   0.055212028917905   0.610939552110711   0.875000000000000   1.0000000
N2   N   0.221873728061479   0.110936246051033   0.875000000000000   1.0000000
N2   N   0.721889812018532   0.610922372567431   0.875000000000000   1.0000000
N2   N   0.555199348769892   0.110931527376664   0.875000000000000   1.0000000
N2   N   0.888541832256785   0.110937582795064   0.875000000000000   1.0000000
B2   B   0.106589933729045   0.051625231315061   0.375000000000000   1.0000000
B2   B   0.624084909735886   0.584076294710927   0.375000000000000   1.0000000
B2   B   0.443543126676013   0.050721963891613   0.375000000000000   1.0000000
B2   B   0.945173277343528   0.555579169193953   0.375000000000000   1.0000000
B2   B   0.778455168640435   0.055894250986886   0.375000000000000   1.0000000
B2   B   0.110633275310603   0.721983304321965   0.875000000000000   1.0000000
B2   B   0.443966833124182   0.721972343235546   0.875000000000000   1.0000000
B2   B   0.277506536525203   0.222132051105433   0.875000000000000   1.0000000
B2   B   0.777278641543825   0.721925931591039   0.875000000000000   1.0000000
B2   B   0.610758215038743   0.222126205850943   0.875000000000000   1.0000000
B2   B   0.944123811769876   0.222106561225565   0.875000000000000   1.0000000
B2   B   0.276499369772604   0.722760908577696   0.375000000000000   1.0000000
B2   B   0.109101131834644   0.221217232583986   0.375000000000000   1.0000000
B2   B   0.442635485363074   0.212219743592152   0.375000000000000   1.0000000
B2   B   0.612328477104437   0.731273741607129   0.375000000000000   1.0000000
B2   B   0.945173277343528   0.722927441482910   0.375000000000000   1.0000000
B2   B   0.778984465407359   0.220494916963825   0.375000000000000   1.0000000
B2   B   0.110680580373195   0.888667002321580   0.875000000000000   1.0000000
B2   B   0.444006182049847   0.888669757691587   0.875000000000000   1.0000000
B2   B   0.277506536525203   0.388707818753096   0.875000000000000   1.0000000
B2   B   0.610763431932862   0.388723992339958   0.875000000000000   1.0000000
B2   B   0.777334821404805   0.888636484915573   0.875000000000000   1.0000000
B2   B   0.944118749118486   0.388712448031672   0.875000000000000   1.0000000
B2   B   0.106589933729045   0.388298035747313   0.375000000000000   1.0000000
B2   B   0.276499369772604   0.887071794528235   0.375000000000000   1.0000000
B2   B   0.611888074169300   0.891903655741913   0.375000000000000   1.0000000
B2   B   0.945303668475397   0.890627141640096   0.375000000000000   1.0000000
B2   B   0.783971486317983   0.386879353384108   0.375000000000000   1.0000000
B2   B   0.277471437084576   0.555434296326148   0.875000000000000   1.0000000
B2   B   0.110651147114934   0.055322279089734   0.875000000000000   1.0000000
B2   B   0.610763431932862   0.555372772926233   0.875000000000000   1.0000000
B2   B   0.443966833124182   0.055327823221973   0.875000000000000   1.0000000
B2   B   0.944113712363778   0.555443593339654   0.875000000000000   1.0000000
B2   B   0.109684756053447   0.555742077455651   0.375000000000000   1.0000000
B2   B   0.777304384260380   0.055318858796858   0.875000000000000   1.0000000
B2   B   0.275100589458092   0.050698313621898   0.375000000000000   1.0000000
B2   B   0.442635485363074   0.563749075104258   0.375000000000000   1.0000000
B2   B   0.780148144536789   0.556740738935062   0.375000000000000   1.0000000
B2   B   0.611888074169300   0.053317751760719   0.375000000000000   1.0000000
B2   B   0.444041207806143   0.555332860570880   0.875000000000000   1.0000000
B2   B   0.944340707918331   0.055965627263931   0.375000000000000   1.0000000
B2   B   0.277453530638003   0.722022522768649   0.875000000000000   1.0000000
B2   B   0.110703227762570   0.222018280547949   0.875000000000000   1.0000000
B2   B   0.444041207806143   0.222041680568600   0.875000000000000   1.0000000
B2   B   0.610758215038743   0.721965342521126   0.875000000000000   1.0000000
B2   B   0.944113712363778   0.722003452357462   0.875000000000000   1.0000000
B2   B   0.777334821404805   0.222031669822560   0.875000000000000   1.0000000
B2   B   0.110199021463692   0.721766177398510   0.375000000000000   1.0000000
B2   B   0.443543126676013   0.726154496117734   0.375000000000000   1.0000000
B2   B   0.267346641418117   0.210765712960235   0.375000000000000   1.0000000
B2   B   0.783971486317983   0.730425466267205   0.375000000000000   1.0000000
B2   B   0.612328477104437   0.214388068830638   0.375000000000000   1.0000000
B2   B   0.944340707918331   0.221708413987735   0.375000000000000   1.0000000
B2   B   0.110651147114934   0.388662201358529   0.875000000000000   1.0000000
B2   B   0.277453530638003   0.888764341202684   0.875000000000000   1.0000000
B2   B   0.610772729459990   0.888737517640817   0.875000000000000   1.0000000
B2   B   0.444048983301945   0.388691158317637   0.875000000000000   1.0000000
B2   B   0.944118749118486   0.888739634420145   0.875000000000000   1.0000000
B2   B   0.109684756053447   0.887276011931124   0.375000000000000   1.0000000
B2   B   0.777278641543825   0.388686043286113   0.875000000000000   1.0000000
B2   B   0.443835610525041   0.888584471929185   0.375000000000000   1.0000000
B2   B   0.267346641418117   0.389914261791210   0.375000000000000   1.0000000
B2   B   0.275100589458092   0.557735609169529   0.375000000000000   1.0000000
B2   B   0.624084909735886   0.373341948358289   0.375000000000000   1.0000000
B2   B   0.778984465407359   0.891822881776863   0.375000000000000   1.0000000
B2   B   0.945303668475397   0.388009860168628   0.375000000000000   1.0000000
B2   B   0.110680580373195   0.555346911384945   0.875000000000000   1.0000000
B2   B   0.277471437084576   0.055370474091762   0.875000000000000   1.0000000
B2   B   0.777323077955491   0.555328205644415   0.875000000000000   1.0000000
B2   B   0.610772729459990   0.055368545152499   0.875000000000000   1.0000000
B2   B   0.944123811769876   0.055350583877648   0.875000000000000   1.0000000
B2   B   0.055934474366289   0.111259130278066   0.125151457243671   1.0000000
B2   B   0.556263064701350   0.611337063841157   0.124352076823051   1.0000000
B2   B   0.389338318840677   0.111382373338800   0.125175453586269   1.0000000
B2   B   0.889250919825031   0.611292126579186   0.125157698816428   1.0000000
B2   B   0.722604401231847   0.111249231196577   0.125009718957229   1.0000000
B2   B   0.055854530945817   0.777897331742526   0.624907441435984   1.0000000
B2   B   0.389271173767355   0.777905424190020   0.624916888343682   1.0000000
B2   B   0.222828398948703   0.278080866141019   0.624884177921151   1.0000000
B2   B   0.722591797789187   0.777943825880418   0.625102209455360   1.0000000
B2   B   0.556263064701350   0.278259334193529   0.625647923176948   1.0000000
B2   B   0.889417653617115   0.278017214425128   0.624973025820182   1.0000000
B2   B   0.222704398448782   0.778018865891057   0.125030861579574   1.0000000
B2   B   0.055934474366289   0.278008677421558   0.125151457243671   1.0000000
B2   B   0.389414923712713   0.278180901048146   0.124070465994960   1.0000000
B2   B   0.556087390284372   0.778009524572399   0.125033490265117   1.0000000
B2   B   0.889303581607790   0.778007940552547   0.125043307905211   1.0000000
B2   B   0.722591797789187   0.277981305242106   0.124897790544640   1.0000000
B2   B   0.055908952762781   0.944684040967188   0.624897996174598   1.0000000
B2   B   0.389271173767355   0.944699082910671   0.624916888343682   1.0000000
B2   B   0.222761546101172   0.444695599756321   0.624870877534721   1.0000000
B2   B   0.556154936663108   0.444744134998219   0.624439621553127   1.0000000
B2   B   0.722604401231847   0.944688503368603   0.624990281042770   1.0000000
B2   B   0.889303581607790   0.444628974388579   0.624956692094791   1.0000000
B2   B   0.055908952762781   0.444558245128921   0.125102003825401   1.0000000
B2   B   0.222791273415818   0.944751926352916   0.125100463169678   1.0000000
B2   B   0.556105286025908   0.944719309679619   0.125036368049706   1.0000000
B2   B   0.389414923712713   0.444567355997903   0.124070465994960   1.0000000
B2   B   0.889417653617115   0.944733772525322   0.125026974179817   1.0000000
B2   B   0.722405739093848   0.444466019077427   0.124404635883372   1.0000000
B2   B   0.222791273415818   0.611372680396237   0.624899536830324   1.0000000
B2   B   0.055934474366289   0.111259130278066   0.624848542756329   1.0000000
B2   B   0.556263064701350   0.611337063841157   0.625647923176948   1.0000000
B2   B   0.389338318840677   0.111382373338800   0.624824546413731   1.0000000
B2   B   0.889250919825031   0.611292126579186   0.624842301183572   1.0000000
B2   B   0.055854530945817   0.611290532536627   0.125092558564017   1.0000000
B2   B   0.722604401231847   0.111249231196577   0.624990281042770   1.0000000
B2   B   0.222761546101172   0.111399279678186   0.125129122465278   1.0000000
B2   B   0.389338318840677   0.611289278835220   0.125175453586269   1.0000000
B2   B   0.722405739093848   0.611273053349758   0.124404635883372   1.0000000
B2   B   0.556087390284372   0.111411199045308   0.125033490265117   1.0000000
B2   B   0.389338318840677   0.611289278835220   0.624824546413731   1.0000000
B2   B   0.889377944523051   0.111355638928196   0.125008373479409   1.0000000
B2   B   0.222704398448782   0.778018865891057   0.624969138420426   1.0000000
B2   B   0.055934474366289   0.278008677421558   0.624848542756329   1.0000000
B2   B   0.389414923712713   0.278180901048146   0.625929534005040   1.0000000
B2   B   0.556087390284372   0.778009524572399   0.624966509734884   1.0000000
B2   B   0.889303581607790   0.778007940552547   0.624956692094791   1.0000000
B2   B   0.722591797789187   0.277981305242106   0.625102209455360   1.0000000
B2   B   0.055854530945817   0.777897331742526   0.125092558564017   1.0000000
B2   B   0.389271173767355   0.777905424190020   0.125083111656318   1.0000000
B2   B   0.222828398948703   0.278080866141019   0.125115822078849   1.0000000
B2   B   0.722591797789187   0.777943825880418   0.124897790544640   1.0000000
B2   B   0.556263064701350   0.278259334193529   0.124352076823051   1.0000000
B2   B   0.889417653617115   0.278017214425128   0.125026974179817   1.0000000
B2   B   0.055908952762781   0.444558245128921   0.624897996174598   1.0000000
B2   B   0.222791273415818   0.944751926352916   0.624899536830324   1.0000000
B2   B   0.556105286025908   0.944719309679619   0.624963631950293   1.0000000
B2   B   0.389414923712713   0.444567355997903   0.625929534005040   1.0000000
B2   B   0.889417653617115   0.944733772525322   0.624973025820182   1.0000000
B2   B   0.055908952762781   0.944684040967188   0.125102003825401   1.0000000
B2   B   0.722405739093848   0.444466019077427   0.625595364116629   1.0000000
B2   B   0.389271173767355   0.944699082910671   0.125083111656318   1.0000000
B2   B   0.222761546101172   0.444695599756321   0.125129122465278   1.0000000
B2   B   0.222791273415818   0.611372680396237   0.125100463169678   1.0000000
B2   B   0.556154936663108   0.444744134998219   0.125560378446873   1.0000000
B2   B   0.722604401231847   0.944688503368603   0.125009718957229   1.0000000
B2   B   0.889303581607790   0.444628974388579   0.125043307905211   1.0000000
B2   B   0.055854530945817   0.611290532536627   0.624907441435984   1.0000000
B2   B   0.222761546101172   0.111399279678186   0.624870877534721   1.0000000
B2   B   0.722405739093848   0.611273053349758   0.625595364116629   1.0000000
B2   B   0.556087390284372   0.111411199045308   0.624966509734884   1.0000000
B2   B   0.889377944523051   0.111355638928196   0.624991626520593   1.0000000


