data_1
_audit_creation_method   'vasp2cif'
_cell_length_a    17.52789999999977
_cell_length_b    17.52789999999977
_cell_length_c    15.0
_cell_angle_alpha    90.0
_cell_angle_beta    90.0
_cell_angle_gamma    119.99999999999916

_symmetry_space_group_name_H-M    'P 1'
loop_
_atom_site_label
_atom_site_type_symbol
_atom_site_fract_x
_atom_site_fract_y
_atom_site_fract_z
_atom_site_occupancy
B2   B   0.903719171940645   0.950770688620934   0.111014605681530   1.0000000
B2   B   0.905623587444687   0.094378433751303   0.111044926857109   1.0000000
B2   B   0.906274370708576   0.237330772543909   0.111189027795319   1.0000000
B2   B   0.906215729865161   0.380261748846296   0.110975852319959   1.0000000
B2   B   0.904752253187302   0.523073469729439   0.110984934127747   1.0000000
B2   B   0.902111485929794   0.665211428281289   0.110999752483148   1.0000000
B2   B   0.900910413011171   0.806455908711329   0.111009752297972   1.0000000
B2   B   0.047172282664365   0.952829738531649   0.110879396204580   1.0000000
B2   B   0.049231332575072   0.096282849255355   0.111014605681530   1.0000000
B2   B   0.049774259226559   0.238723027434279   0.111195804530996   1.0000000
B2   B   0.048955450513450   0.381228015034623   0.110980974919272   1.0000000
B2   B   0.047135254720223   0.524162636366995   0.110959981859856   1.0000000
B2   B   0.045952291091568   0.667003006383641   0.110951964672949   1.0000000
B2   B   0.045899222396616   0.809671519866970   0.110962288790552   1.0000000
B2   B   0.190330501329042   0.954102798799394   0.110962288790552   1.0000000
B2   B   0.193546112484690   0.099091608184819   0.111009752297972   1.0000000
B2   B   0.194837605289633   0.241783323018983   0.110984818111041   1.0000000
B2   B   0.192964893754824   0.382966820655139   0.110982495276667   1.0000000
B2   B   0.189212948010422   0.525255844949633   0.111228644134364   1.0000000
B2   B   0.188589417144340   0.668066166009763   0.111194916295847   1.0000000
B2   B   0.189146218322756   0.810855802873230   0.110879038129226   1.0000000
B2   B   0.332999014813354   0.954049730104432   0.110951964672949   1.0000000
B2   B   0.334790592915710   0.097890535266217   0.110999752483148   1.0000000
B2   B   0.341455214861720   0.246578377098663   0.110899971343060   1.0000000
B2   B   0.340541216945500   0.387443848744600   0.110499813809342   1.0000000
B2   B   0.330992341469668   0.528218368330987   0.110532861673526   1.0000000
B2   B   0.330584131206018   0.669417889990971   0.111270904500755   1.0000000
B2   B   0.331935855187239   0.811412604051660   0.111194916295847   1.0000000
B2   B   0.475839384829997   0.952866766475769   0.110959981859856   1.0000000
B2   B   0.476928551467547   0.095249768008685   0.110984934127747   1.0000000
B2   B   0.478738092526435   0.238283300668090   0.111549796653358   1.0000000
B2   B   0.495774770861145   0.393661367147152   0.110936444984042   1.0000000
B2   B   0.471783652866016   0.669009679727329   0.110532861673526   1.0000000
B2   B   0.474746176247360   0.810789073185588   0.111228644134364   1.0000000
B2   B   0.618774006161379   0.951046570682553   0.110980974919272   1.0000000
B2   B   0.619740272349711   0.093786291330829   0.110975852319959   1.0000000
B2   B   0.620666089515684   0.235912560905738   0.111218029977424   1.0000000
B2   B   0.622622688767253   0.377379332428747   0.111654793729680   1.0000000
B2   B   0.606340654048853   0.504227250335852   0.110936444984042   1.0000000
B2   B   0.612558172451391   0.659460804251501   0.110499813809342   1.0000000
B2   B   0.617035200540878   0.807037127441184   0.110982495276667   1.0000000
B2   B   0.761278993761716   0.950227761969436   0.111195804530996   1.0000000
B2   B   0.762671248652084   0.093727650487418   0.111189027795319   1.0000000
B2   B   0.763410133908943   0.236591887287046   0.111265917102639   1.0000000
B2   B   0.764089460290270   0.379335931680317   0.111218029977424   1.0000000
B2   B   0.761718720527909   0.521263928670581   0.111549796653358   1.0000000
B2   B   0.753423644097345   0.658546806335273   0.110899971343060   1.0000000
B2   B   0.758218698177029   0.805164415906370   0.110984818111041   1.0000000
C2   C   0.471178994969001   0.528823026227990   0.110773139965052   1.0000000
N2   N   0.950776811579732   0.902970547262176   0.110908698086670   1.0000000
N2   N   0.953113868706991   0.046887533211014   0.110813749058994   1.0000000
N2   N   0.954111961555103   0.190030004525792   0.111096764059480   1.0000000
N2   N   0.953881862394741   0.332753684170388   0.110925135439818   1.0000000
N2   N   0.952504574449562   0.475653733630222   0.110745459884879   1.0000000
N2   N   0.950803980118579   0.618477453070345   0.110755426634274   1.0000000
N2   N   0.950084017170922   0.760630066350108   0.111146503933037   1.0000000
N2   N   0.094634578269484   0.905366823648515   0.110816589422485   1.0000000
N2   N   0.097030854655822   0.049224590338268   0.110908698086670   1.0000000
N2   N   0.098447187367439   0.192283246257705   0.111307527092619   1.0000000
N2   N   0.097466642183770   0.334248392074245   0.111089889192039   1.0000000
N2   N   0.094732283704461   0.476625522688849   0.110976184919600   1.0000000
N2   N   0.093706196877859   0.619581797093759   0.111169950100294   1.0000000
N2   N   0.093757833077184   0.762453068838982   0.110922171551522   1.0000000
N2   N   0.237548333079008   0.906243568840810   0.110922171551522   1.0000000
N2   N   0.239371335567902   0.049917384747078   0.111146503933037   1.0000000
N2   N   0.243946154885326   0.195949263438728   0.110866115281200   1.0000000
N2   N   0.243748991670008   0.337844772667157   0.110745017527629   1.0000000
N2   N   0.237109679416992   0.478187313498593   0.111092803116685   1.0000000
N2   N   0.235971008915433   0.620581768675067   0.111444473058893   1.0000000
N2   N   0.236657877858037   0.763343524059972   0.110788294698712   1.0000000
N2   N   0.380419604824246   0.906295205040149   0.111169950100294   1.0000000
N2   N   0.381523948847649   0.049197421799412   0.110755426634274   1.0000000
N2   N   0.383920266274163   0.193652169638487   0.111097270804339   1.0000000
N2   N   0.394230909286286   0.345293459627529   0.110652947284031   1.0000000
N2   N   0.381820503037374   0.484251342815268   0.110094582610700   1.0000000
N2   N   0.377770061595196   0.622231340322810   0.110696344735482   1.0000000
N2   N   0.379419633242945   0.764030393002575   0.111444473058893   1.0000000
N2   N   0.523375879228150   0.905269118213536   0.110976184919600   1.0000000
N2   N   0.524347668286773   0.047496827468455   0.110745459884879   1.0000000
N2   N   0.525497017109827   0.189808642143876   0.111467067599698   1.0000000
N2   N   0.528135037527435   0.332454914798084   0.111903036113538   1.0000000
N2   N   0.515750059101734   0.618180898880610   0.110094582610700   1.0000000
N2   N   0.521814088418399   0.762891722501006   0.111092803116686   1.0000000
N2   N   0.665753009842753   0.902534759734231   0.111089889192039   1.0000000
N2   N   0.667247717746606   0.046119539523268   0.110925135439818   1.0000000
N2   N   0.668154109061795   0.188614051707107   0.111186552784784   1.0000000
N2   N   0.669489980861891   0.330511421055108   0.110954587909913   1.0000000
N2   N   0.667546487118902   0.471866364389567   0.111903036113538   1.0000000
N2   N   0.654707942289458   0.605770492631706   0.110652947284031   1.0000000
N2   N   0.662156629249836   0.756252410248005   0.110745017527630   1.0000000
N2   N   0.807718155660298   0.901554214550560   0.111307527092618   1.0000000
N2   N   0.809971397392202   0.045889440362911   0.111096764059480   1.0000000
N2   N   0.810924970837813   0.189076431080178   0.111413853735964   1.0000000
N2   N   0.811387350210904   0.331847292855199   0.111186552784784   1.0000000
N2   N   0.810192759774123   0.474504384807173   0.111467067599698   1.0000000
N2   N   0.806349232279521   0.616081135643840   0.111097270804339   1.0000000
N2   N   0.804052138479263   0.756055247032678   0.110866115281200   1.0000000


