data_1
_audit_creation_method   'vasp2cif'
_cell_length_a    17.52789999999977
_cell_length_b    17.52789999999977
_cell_length_c    15.0
_cell_angle_alpha    90.0
_cell_angle_beta    90.0
_cell_angle_gamma    119.99999999999916

_symmetry_space_group_name_H-M    'P 1'
loop_
_atom_site_label
_atom_site_type_symbol
_atom_site_fract_x
_atom_site_fract_y
_atom_site_fract_z
_atom_site_occupancy
B2   B   0.904626614608402   0.952425315433988   0.110956715446823   1.0000000
B2   B   0.904908755099850   0.095321802089367   0.110987806343892   1.0000000
B2   B   0.904889829112590   0.238035121012404   0.110979530493545   1.0000000
B2   B   0.904466902817369   0.380608506736650   0.110924325043396   1.0000000
B2   B   0.904405128848336   0.523642481057962   0.110998995995903   1.0000000
B2   B   0.909430785660668   0.669043254663601   0.111187295074602   1.0000000
B2   B   0.904347812892608   0.809225335039124   0.111032483757514   1.0000000
B2   B   0.047886865895753   0.952710253383710   0.110952250536509   1.0000000
B2   B   0.047939669156207   0.095552099558835   0.110934335071684   1.0000000
B2   B   0.047993013576849   0.238256559665519   0.110944493377217   1.0000000
B2   B   0.047816486596283   0.380886661819726   0.110972563846603   1.0000000
B2   B   0.047577641780119   0.523744703397175   0.110986774104572   1.0000000
B2   B   0.049236927940178   0.667007623014059   0.111043844567508   1.0000000
B2   B   0.049295719772986   0.810879231958767   0.111016579085064   1.0000000
B2   B   0.191115605758422   0.952927884293600   0.110949712011198   1.0000000
B2   B   0.191089920449214   0.095885083935544   0.110955189195462   1.0000000
B2   B   0.191157693836309   0.238623768429215   0.110970629231415   1.0000000
B2   B   0.191218988628476   0.381168305922245   0.110965934449846   1.0000000
B2   B   0.190307722576657   0.523768492859773   0.111049697553723   1.0000000
B2   B   0.191055764463736   0.666798868517073   0.111073888236551   1.0000000
B2   B   0.191213159524327   0.809930105993067   0.110992926048907   1.0000000
B2   B   0.333681490573449   0.952556282724075   0.110959666613903   1.0000000
B2   B   0.333307080804713   0.094907511675823   0.111001611548040   1.0000000
B2   B   0.334441357496497   0.238598759358738   0.111066756368654   1.0000000
B2   B   0.335252749194177   0.382574746543474   0.111093893269192   1.0000000
B2   B   0.332909192795085   0.523850174173723   0.111074670698816   1.0000000
B2   B   0.333347836873342   0.666824975075017   0.111088425423129   1.0000000
B2   B   0.333651294553860   0.809787331812285   0.111047620960343   1.0000000
B2   B   0.476381078117731   0.952753321732805   0.110934434864859   1.0000000
B2   B   0.476339237836906   0.095524173385481   0.110887969099003   1.0000000
B2   B   0.475123978965613   0.237042738511107   0.110992826951983   1.0000000
B2   B   0.475740626191322   0.523794367061097   0.111255484271210   1.0000000
B2   B   0.475609454053859   0.667066609385419   0.111060207157384   1.0000000
B2   B   0.476212600987350   0.809934207701464   0.111033862462304   1.0000000
B2   B   0.619058406302724   0.952388757756191   0.110950979224286   1.0000000
B2   B   0.619175736803769   0.095389958907792   0.110890790722367   1.0000000
B2   B   0.619247812529687   0.238382409075356   0.110959058247928   1.0000000
B2   B   0.616763920197531   0.380199458650110   0.111075940942751   1.0000000
B2   B   0.615979723576694   0.664692673283449   0.111092963521428   1.0000000
B2   B   0.618566629884716   0.809048369351184   0.110973223554635   1.0000000
B2   B   0.761744743037940   0.952569032514914   0.110956913471183   1.0000000
B2   B   0.761959131406996   0.095209784159269   0.110983670628743   1.0000000
B2   B   0.761847149083339   0.237588333171015   0.110958194989131   1.0000000
B2   B   0.760696662599047   0.379126582791678   0.110997752732347   1.0000000
B2   B   0.759865372194787   0.520367949249750   0.111232790930529   1.0000000
B2   B   0.758836019766874   0.667155617092491   0.111219811759888   1.0000000
B2   B   0.761033706886689   0.809928570079828   0.111001014731301   1.0000000
C2   C   0.477006439313224   0.379211347361729   0.111407106560048   1.0000000
C2   C   0.524403560604365   0.474260327192322   0.111504655883703   1.0000000
C2   C   0.618624791516833   0.521825978568239   0.111330872640969   1.0000000
C2   C   0.809705297198544   0.619118999664887   0.111376237300053   1.0000000
N2   N   0.952254967164880   0.904631566188906   0.110956528909108   1.0000000
N2   N   0.952623088415375   0.047725931662823   0.110940307513093   1.0000000
N2   N   0.952702846970979   0.190551508582240   0.110958479920317   1.0000000
N2   N   0.952429225103968   0.333265184153968   0.110940591400394   1.0000000
N2   N   0.951996718032035   0.476079003106752   0.110917704506901   1.0000000
N2   N   0.954374618176261   0.619454327461448   0.111052028435559   1.0000000
N2   N   0.954488633746994   0.763614524287220   0.111044848218818   1.0000000
N2   N   0.096214903814319   0.905795471133526   0.110941967963658   1.0000000
N2   N   0.095760817206152   0.048119351012116   0.110915129143023   1.0000000
N2   N   0.095876924648119   0.190817555960767   0.110923151613232   1.0000000
N2   N   0.095741456759150   0.333357559643120   0.110934108326900   1.0000000
N2   N   0.095015592616159   0.476051058458506   0.110985560523806   1.0000000
N2   N   0.095989207854600   0.619049325460429   0.111020705018522   1.0000000
N2   N   0.096147122838387   0.762445564050348   0.111005995571793   1.0000000
N2   N   0.238586438876397   0.905240812544529   0.110935963088980   1.0000000
N2   N   0.238491480194925   0.048089340560947   0.110961803861624   1.0000000
N2   N   0.239333319478554   0.191512995290195   0.110970051112247   1.0000000
N2   N   0.239652702971866   0.333606832384132   0.110969238046523   1.0000000
N2   N   0.237626688115820   0.476073887652977   0.111008833448274   1.0000000
N2   N   0.238084535922702   0.619074541713202   0.111069049158148   1.0000000
N2   N   0.238480159493879   0.762186461924862   0.111034256138865   1.0000000
N2   N   0.381210901780166   0.905129885460420   0.110965869599634   1.0000000
N2   N   0.381197481795726   0.047888915963313   0.110930396648342   1.0000000
N2   N   0.380838174086632   0.190164677372298   0.111009794114630   1.0000000
N2   N   0.385060994682192   0.334634779853586   0.111185827849494   1.0000000
N2   N   0.379742432629525   0.476438541358780   0.111098019614034   1.0000000
N2   N   0.380346083499879   0.619352372545419   0.111065464607473   1.0000000
N2   N   0.381009069704020   0.762282626772153   0.111056923580034   1.0000000
N2   N   0.523912590482618   0.905204161408465   0.110957557314113   1.0000000
N2   N   0.523911622747663   0.048058630066177   0.110847455077977   1.0000000
N2   N   0.523727594880712   0.191094397081451   0.110902253810410   1.0000000
N2   N   0.520907495129916   0.333391038320793   0.111139593162390   1.0000000
N2   N   0.522462611985449   0.619726241479801   0.111080095648613   1.0000000
N2   N   0.523635302239119   0.762417325596646   0.111001417370722   1.0000000
N2   N   0.666568692068355   0.904586161052707   0.110940347690030   1.0000000
N2   N   0.666721417895134   0.047698367818423   0.110918539931665   1.0000000
N2   N   0.666624860176790   0.190520426901280   0.110917774956597   1.0000000
N2   N   0.665496221329166   0.333159930798264   0.111004573091631   1.0000000
N2   N   0.663809245953180   0.476552392303377   0.111176912852686   1.0000000
N2   N   0.662927688249540   0.614423975712263   0.111155403239681   1.0000000
N2   N   0.665840732261009   0.760605914592221   0.110979708145224   1.0000000
N2   N   0.809284696387272   0.905055066946141   0.110942064024045   1.0000000
N2   N   0.809644663271673   0.047735845856098   0.110975956464232   1.0000000
N2   N   0.809658093520096   0.190282795542555   0.110966541102748   1.0000000
N2   N   0.809116972599207   0.332511718812910   0.110928857550271   1.0000000
N2   N   0.808055520251790   0.474145239914536   0.111006919848147   1.0000000
N2   N   0.808007167941669   0.762158826737816   0.111034053783312   1.0000000


