data_1
_audit_creation_method   'vasp2cif'
_cell_length_a    14.93631414619966
_cell_length_b    14.936314146199727
_cell_length_c    13.341276283792837
_cell_angle_alpha    90.0
_cell_angle_beta    90.0
_cell_angle_gamma    119.99999999999984

_symmetry_space_group_name_H-M    'P 1'
loop_
_atom_site_label
_atom_site_type_symbol
_atom_site_fract_x
_atom_site_fract_y
_atom_site_fract_z
_atom_site_occupancy
Al2   Al   0.444444444444443   0.388888888888886   0.375000000000000   1.0000000
N2   N   0.111086889821234   0.055535492772019   0.124684949577002   1.0000000
N2   N   0.611138654487673   0.555599024273513   0.125109003943276   1.0000000
N2   N   0.444448602950790   0.055535492772019   0.124684949577002   1.0000000
N2   N   0.944444149058554   0.555558302166611   0.124959466434228   1.0000000
N2   N   0.777777777777779   0.055555555555557   0.125006619645703   1.0000000
N2   N   0.111111111111114   0.722222222222221   0.624961265820110   1.0000000
N2   N   0.444448602950790   0.722246443512106   0.625315050422985   1.0000000
N2   N   0.277734309059813   0.222194678845659   0.624890996056719   1.0000000
N2   N   0.777797840561320   0.722246443512106   0.625315050422985   1.0000000
N2   N   0.611121928171462   0.222211405161872   0.625339223841237   1.0000000
N2   N   0.944432057672972   0.222220266154346   0.625076366676898   1.0000000
N2   N   0.277775031166715   0.722219180225280   0.124959466434228   1.0000000
N2   N   0.111089476990410   0.222211405161872   0.124660776158765   1.0000000
N2   N   0.444460369785846   0.222194678845659   0.125109003943276   1.0000000
N2   N   0.611121928171462   0.722243856342934   0.124660776158765   1.0000000
N2   N   0.944444149058554   0.722219180225280   0.124959466434228   1.0000000
N2   N   0.777788208481377   0.222220266154346   0.124923633323103   1.0000000
N2   N   0.111114153108063   0.888889184274775   0.625040533565765   1.0000000
N2   N   0.444456696342330   0.888895014837826   0.625026294815037   1.0000000
N2   N   0.277734309059813   0.388872963547482   0.624890996056719   1.0000000
N2   N   0.611138654487673   0.388872963547482   0.624890996056719   1.0000000
N2   N   0.777788208481377   0.888901275660357   0.625076366676898   1.0000000
N2   N   0.944438318495502   0.388876636990998   0.625026294815037   1.0000000
N2   N   0.111086889821234   0.388884730382539   0.124684949577002   1.0000000
N2   N   0.277775031166715   0.888889184274775   0.124959466434228   1.0000000
N2   N   0.611113067178991   0.888901275660357   0.124923633323103   1.0000000
N2   N   0.444444444444443   0.388888888888886   0.129324881144622   1.0000000
N2   N   0.944438318495502   0.888895014837826   0.124973705184977   1.0000000
N2   N   0.777797840561320   0.388884730382539   0.124684949577002   1.0000000
N2   N   0.277771121677387   0.555562211655943   0.625295391747271   1.0000000
N2   N   0.111086889821234   0.055535492772019   0.625315050422985   1.0000000
N2   N   0.611138654487673   0.555599024273513   0.624890996056719   1.0000000
N2   N   0.444448602950790   0.055535492772019   0.625315050422985   1.0000000
N2   N   0.944444149058554   0.555558302166611   0.625040533565765   1.0000000
N2   N   0.111114153108063   0.555558302166611   0.124959466434228   1.0000000
N2   N   0.777777777777779   0.055555555555557   0.624993380354300   1.0000000
N2   N   0.277771121677387   0.055542243354771   0.124704608252715   1.0000000
N2   N   0.444460369785846   0.555599024273513   0.125109003943276   1.0000000
N2   N   0.777791089978562   0.555562211655943   0.124704608252715   1.0000000
N2   N   0.611113067178991   0.055545124851957   0.124923633323103   1.0000000
N2   N   0.444460369785846   0.555599024273513   0.624890996056719   1.0000000
N2   N   0.944432057672972   0.055545124851957   0.124923633323103   1.0000000
N2   N   0.277775031166715   0.722219180225280   0.625040533565765   1.0000000
N2   N   0.111089476990410   0.222211405161872   0.625339223841237   1.0000000
N2   N   0.444460369785846   0.222194678845659   0.624890996056719   1.0000000
N2   N   0.611121928171462   0.722243856342934   0.625339223841237   1.0000000
N2   N   0.944444149058554   0.722219180225280   0.625040533565765   1.0000000
N2   N   0.777788208481377   0.222220266154346   0.625076366676898   1.0000000
N2   N   0.111111111111114   0.722222222222221   0.125038734179886   1.0000000
N2   N   0.444448602950790   0.722246443512106   0.124684949577002   1.0000000
N2   N   0.277734309059813   0.222194678845659   0.125109003943276   1.0000000
N2   N   0.777797840561320   0.722246443512106   0.124684949577002   1.0000000
N2   N   0.611121928171462   0.222211405161872   0.124660776158765   1.0000000
N2   N   0.944432057672972   0.222220266154346   0.124923633323103   1.0000000
N2   N   0.111086889821234   0.388884730382539   0.625315050422985   1.0000000
N2   N   0.277775031166715   0.888889184274775   0.625040533565765   1.0000000
N2   N   0.611113067178991   0.888901275660357   0.625076366676898   1.0000000
N2   N   0.444444444444443   0.388888888888886   0.620675118855380   1.0000000
N2   N   0.944438318495502   0.888895014837826   0.625026294815037   1.0000000
N2   N   0.111114153108063   0.888889184274775   0.124959466434228   1.0000000
N2   N   0.777797840561320   0.388884730382539   0.625315050422985   1.0000000
N2   N   0.444456696342330   0.888895014837826   0.124973705184977   1.0000000
N2   N   0.277734309059813   0.388872963547482   0.125109003943276   1.0000000
N2   N   0.277771121677387   0.555562211655943   0.124704608252715   1.0000000
N2   N   0.611138654487673   0.388872963547482   0.125109003943276   1.0000000
N2   N   0.777788208481377   0.888901275660357   0.124923633323103   1.0000000
N2   N   0.944438318495502   0.388876636990998   0.124973705184977   1.0000000
N2   N   0.111114153108063   0.555558302166611   0.625040533565765   1.0000000
N2   N   0.277771121677387   0.055542243354771   0.625295391747271   1.0000000
N2   N   0.777791089978562   0.555562211655943   0.625295391747271   1.0000000
N2   N   0.611113067178991   0.055545124851957   0.625076366676898   1.0000000
N2   N   0.944432057672972   0.055545124851957   0.625076366676898   1.0000000
N2   N   0.054565844731315   0.110437249078698   0.375000000000000   1.0000000
N2   N   0.556107503843915   0.612215007687846   0.375000000000000   1.0000000
N2   N   0.387882449420572   0.105521783556598   0.375000000000000   1.0000000
N2   N   0.890823659669541   0.612078496501439   0.375000000000000   1.0000000
N2   N   0.722396673037241   0.110936660296095   0.375000000000000   1.0000000
N2   N   0.055558027484472   0.777775305848852   0.875000000000000   1.0000000
N2   N   0.388892793513241   0.777777868189860   0.875000000000000   1.0000000
N2   N   0.222229498934598   0.277781416133974   0.875000000000000   1.0000000
N2   N   0.722223938090002   0.777771816195231   0.875000000000000   1.0000000
N2   N   0.555551917199371   0.277781416133974   0.875000000000000   1.0000000
N2   N   0.888888613520777   0.277777227041528   0.875000000000000   1.0000000
N2   N   0.221848552937897   0.777590943135620   0.375000000000000   1.0000000
N2   N   0.054565844731315   0.277461928985958   0.375000000000000   1.0000000
N2   N   0.379687301279544   0.259374602559069   0.375000000000000   1.0000000
N2   N   0.555871404347377   0.778767488602032   0.375000000000000   1.0000000
N2   N   0.890454945031324   0.779043518543062   0.375000000000000   1.0000000
N2   N   0.722896084254651   0.277461928985958   0.375000000000000   1.0000000
N2   N   0.055555465143473   0.944448258656675   0.875000000000000   1.0000000
N2   N   0.388892793513241   0.944448258656675   0.875000000000000   1.0000000
N2   N   0.222217252955933   0.444444283582846   0.875000000000000   1.0000000
N2   N   0.555536412281758   0.444434872807544   0.875000000000000   1.0000000
N2   N   0.722224156085323   0.944448312170641   0.875000000000000   1.0000000
N2   N   0.888885074676654   0.444440539820088   0.875000000000000   1.0000000
N2   N   0.054289814790282   0.444744759821626   0.375000000000000   1.0000000
N2   N   0.221254836831896   0.942509673663787   0.375000000000000   1.0000000
N2   N   0.555809496414081   0.944571414873684   0.375000000000000   1.0000000
N2   N   0.379687301279544   0.453646032053784   0.375000000000000   1.0000000
N2   N   0.888761918459644   0.944571414873684   0.375000000000000   1.0000000
N2   N   0.727811549776726   0.445450883912757   0.375000000000000   1.0000000
N2   N   0.222218346652581   0.611114986680773   0.875000000000000   1.0000000
N2   N   0.055561517138116   0.111109395243342   0.875000000000000   1.0000000
N2   N   0.555551917199371   0.611103834398724   0.875000000000000   1.0000000
N2   N   0.388889049750482   0.111106302706418   0.875000000000000   1.0000000
N2   N   0.888896640028171   0.611114986680773   0.875000000000000   1.0000000
N2   N   0.055742390197718   0.611484780395435   0.375000000000000   1.0000000
N2   N   0.722224156085323   0.111109177248016   0.875000000000000   1.0000000
N2   N   0.217639334136031   0.105521783556598   0.375000000000000   1.0000000
N2   N   0.387882449420572   0.615693999197305   0.375000000000000   1.0000000
N2   N   0.727811549776726   0.615693999197305   0.375000000000000   1.0000000
N2   N   0.555871404347377   0.110437249078698   0.375000000000000   1.0000000
N2   N   0.388889049750482   0.611116080377384   0.875000000000000   1.0000000
N2   N   0.888539987258862   0.110936660296095   0.375000000000000   1.0000000
N2   N   0.222217278364390   0.777775305848852   0.875000000000000   1.0000000
N2   N   0.055561517138116   0.277785455228116   0.875000000000000   1.0000000
N2   N   0.388898460525785   0.277796921051565   0.875000000000000   1.0000000
N2   N   0.555547878105217   0.777771816195231   0.875000000000000   1.0000000
N2   N   0.888885074676654   0.777777868189860   0.875000000000000   1.0000000
N2   N   0.722223938090002   0.277785455228116   0.875000000000000   1.0000000
N2   N   0.055742390197718   0.777590943135620   0.375000000000000   1.0000000
N2   N   0.388588573511703   0.779043518543062   0.375000000000000   1.0000000
N2   N   0.221118325645497   0.277225829489413   0.375000000000000   1.0000000
N2   N   0.722896084254651   0.778767488602032   0.375000000000000   1.0000000
N2   N   0.556107503843915   0.277225829489413   0.375000000000000   1.0000000
N2   N   0.888761918459644   0.277523836919260   0.375000000000000   1.0000000
N2   N   0.055555465143473   0.444440539820088   0.875000000000000   1.0000000
N2   N   0.222218346652581   0.944436693305157   0.875000000000000   1.0000000
N2   N   0.555556106291806   0.944444719812552   0.875000000000000   1.0000000
N2   N   0.388898460525785   0.444434872807544   0.875000000000000   1.0000000
N2   N   0.888888613520777   0.944444719812552   0.875000000000000   1.0000000
N2   N   0.054289814790282   0.942878388302005   0.375000000000000   1.0000000
N2   N   0.722227030626917   0.444444283582846   0.875000000000000   1.0000000
N2   N   0.388588573511703   0.942878388302005   0.375000000000000   1.0000000
N2   N   0.217639334136031   0.445450883912757   0.375000000000000   1.0000000
N2   N   0.221254836831896   0.612078496501439   0.375000000000000   1.0000000
N2   N   0.573958730774240   0.453646032053784   0.375000000000000   1.0000000
N2   N   0.722396673037241   0.944793346074467   0.375000000000000   1.0000000
N2   N   0.890454945031324   0.444744759821626   0.375000000000000   1.0000000
N2   N   0.055558027484472   0.611116054968941   0.875000000000000   1.0000000
N2   N   0.222217252955933   0.111106302706418   0.875000000000000   1.0000000
N2   N   0.722227030626917   0.611116080377384   0.875000000000000   1.0000000
N2   N   0.555547878105217   0.111109395243342   0.875000000000000   1.0000000
N2   N   0.888885021162688   0.111109177248016   0.875000000000000   1.0000000
B2   B   0.108148806222581   0.052814730437662   0.375000000000000   1.0000000
B2   B   0.618126167695412   0.561352796812930   0.375000000000000   1.0000000
B2   B   0.444665924215081   0.052814730437662   0.375000000000000   1.0000000
B2   B   0.945261852240914   0.555841966885922   0.375000000000000   1.0000000
B2   B   0.777777777777779   0.055555555555557   0.375000000000000   1.0000000
B2   B   0.111111111111114   0.722222222222221   0.875000000000000   1.0000000
B2   B   0.444440170887196   0.722226288942507   0.875000000000000   1.0000000
B2   B   0.277727748009233   0.222240571813741   0.875000000000000   1.0000000
B2   B   0.777786118055273   0.722226288942507   0.875000000000000   1.0000000
B2   B   0.611082620010744   0.222250713322603   0.875000000000000   1.0000000
B2   B   0.944411629445864   0.222254154575714   0.875000000000000   1.0000000
B2   B   0.277491366447399   0.722753218688305   0.375000000000000   1.0000000
B2   B   0.110227246024596   0.221780289678965   0.375000000000000   1.0000000
B2   B   0.443226629117528   0.215207165637928   0.375000000000000   1.0000000
B2   B   0.611553043654384   0.723106087308738   0.375000000000000   1.0000000
B2   B   0.945261852240914   0.722753218688305   0.375000000000000   1.0000000
B2   B   0.777958775917849   0.221843713508188   0.375000000000000   1.0000000
B2   B   0.111173441016026   0.888913192475219   0.875000000000000   1.0000000
B2   B   0.444504846202285   0.888919089767778   0.875000000000000   1.0000000
B2   B   0.277727748009233   0.388820509528821   0.875000000000000   1.0000000
B2   B   0.611092761519591   0.388820509528821   0.875000000000000   1.0000000
B2   B   0.777842525129862   0.888921703887465   0.875000000000000   1.0000000
B2   B   0.944414243565550   0.388828487131043   0.875000000000000   1.0000000
B2   B   0.108148806222581   0.388667409118248   0.375000000000000   1.0000000
B2   B   0.277491366447399   0.888071481092415   0.375000000000000   1.0000000
B2   B   0.611489619825147   0.889448395743008   0.375000000000000   1.0000000
B2   B   0.944260549735027   0.889072783598301   0.375000000000000   1.0000000
B2   B   0.780518602895676   0.388667409118248   0.375000000000000   1.0000000
B2   B   0.277738918578072   0.555594414755276   0.875000000000000   1.0000000
B2   B   0.111107044390829   0.055547215278030   0.875000000000000   1.0000000
B2   B   0.611092761519591   0.555605585324115   0.875000000000000   1.0000000
B2   B   0.444440170887196   0.055547215278030   0.875000000000000   1.0000000
B2   B   0.944420140858109   0.555593581874153   0.875000000000000   1.0000000
B2   B   0.110580114645011   0.555841966885922   0.375000000000000   1.0000000
B2   B   0.777777777777779   0.055555555555557   0.875000000000000   1.0000000
B2   B   0.276333847465639   0.052667694931284   0.375000000000000   1.0000000
B2   B   0.443226629117528   0.561352796812930   0.375000000000000   1.0000000
B2   B   0.780665638402057   0.556999485867682   0.375000000000000   1.0000000
B2   B   0.611489619825147   0.055374557415478   0.375000000000000   1.0000000
B2   B   0.444512823804508   0.555605585324115   0.875000000000000   1.0000000
B2   B   0.943884937590321   0.055374557415478   0.375000000000000   1.0000000
B2   B   0.277739751459185   0.722159892317316   0.875000000000000   1.0000000
B2   B   0.111168093311872   0.222250713322603   0.875000000000000   1.0000000
B2   B   0.444512823804508   0.222240571813741   0.875000000000000   1.0000000
B2   B   0.611082620010744   0.722165240021476   0.875000000000000   1.0000000
B2   B   0.944420140858109   0.722159892317316   0.875000000000000   1.0000000
B2   B   0.777842525129862   0.222254154575714   0.875000000000000   1.0000000
B2   B   0.111111111111114   0.722222222222221   0.375000000000000   1.0000000
B2   B   0.444665924215081   0.725184527110762   0.375000000000000   1.0000000
B2   B   0.271980536520398   0.215207165637928   0.375000000000000   1.0000000
B2   B   0.780518602895676   0.725184527110762   0.375000000000000   1.0000000
B2   B   0.611553043654384   0.221780289678965   0.375000000000000   1.0000000
B2   B   0.943884937590321   0.221843713508188   0.375000000000000   1.0000000
B2   B   0.111107044390829   0.388893162446132   0.875000000000000   1.0000000
B2   B   0.277739751459185   0.888913192475219   0.875000000000000   1.0000000
B2   B   0.611079178757638   0.888921703887465   0.875000000000000   1.0000000
B2   B   0.444444444444443   0.388888888888886   0.875000000000000   1.0000000
B2   B   0.944414243565550   0.888919089767778   0.875000000000000   1.0000000
B2   B   0.110580114645011   0.888071481092415   0.375000000000000   1.0000000
B2   B   0.777786118055273   0.388893162446132   0.875000000000000   1.0000000
B2   B   0.444812233863260   0.889072783598301   0.375000000000000   1.0000000
B2   B   0.271980536520398   0.390106704215801   0.375000000000000   1.0000000
B2   B   0.276333847465639   0.556999485867682   0.375000000000000   1.0000000
B2   B   0.618126167695412   0.390106704215801   0.375000000000000   1.0000000
B2   B   0.777958775917849   0.889448395743008   0.375000000000000   1.0000000
B2   B   0.944260549735027   0.388521099470069   0.375000000000000   1.0000000
B2   B   0.111173441016026   0.555593581874153   0.875000000000000   1.0000000
B2   B   0.277738918578072   0.055477837156126   0.875000000000000   1.0000000
B2   B   0.777855496177191   0.555594414755276   0.875000000000000   1.0000000
B2   B   0.611079178757638   0.055490808203490   0.875000000000000   1.0000000
B2   B   0.944411629445864   0.055490808203490   0.875000000000000   1.0000000
B2   B   0.055559679270123   0.111059095957490   0.124782739126840   1.0000000
B2   B   0.555594679213661   0.611189358427297   0.124997356678310   1.0000000
B2   B   0.388908309101379   0.111017452091211   0.124768258972641   1.0000000
B2   B   0.888903453998007   0.611118393665678   0.124872373927608   1.0000000
B2   B   0.722256941082919   0.111076392250414   0.124976542025041   1.0000000
B2   B   0.055589491089151   0.777743842244182   0.624996842468137   1.0000000
B2   B   0.388915785931804   0.777755758722365   0.625111172121508   1.0000000
B2   B   0.222143974906037   0.277738654119687   0.625002643321712   1.0000000
B2   B   0.722274237375855   0.777773654063208   0.625217260873156   1.0000000
B2   B   0.555594679213661   0.277738654119687   0.625002643321712   1.0000000
B2   B   0.888888523795088   0.277777047590183   0.625026470906808   1.0000000
B2   B   0.222154351155038   0.777743842244182   0.125003157531857   1.0000000
B2   B   0.055559679270123   0.277833916645970   0.124782739126840   1.0000000
B2   B   0.388785785678403   0.277571571356817   0.126411718455233   1.0000000
B2   B   0.555499416687365   0.777773654063208   0.124782739126840   1.0000000
B2   B   0.888839972790539   0.777755758722365   0.124888827878488   1.0000000
B2   B   0.722274237375855   0.277833916645970   0.124782739126840   1.0000000
B2   B   0.055577574610984   0.944493360542790   0.625111172121508   1.0000000
B2   B   0.388915785931804   0.944493360542790   0.625111172121508   1.0000000
B2   B   0.222109142989831   0.444425024231950   0.625231741027358   1.0000000
B2   B   0.555761761976522   0.444547547654925   0.623588281544764   1.0000000
B2   B   0.722256941082919   0.944513882165834   0.625023457974958   1.0000000
B2   B   0.888839972790539   0.444417547401525   0.625111172121508   1.0000000
B2   B   0.055577574610984   0.444417547401525   0.124888827878488   1.0000000
B2   B   0.222214939667674   0.944429879335321   0.124872373927608   1.0000000
B2   B   0.555556285743163   0.944444809538241   0.124973529093199   1.0000000
B2   B   0.388785785678403   0.444547547654925   0.126411718455233   1.0000000
B2   B   0.888888523795088   0.944444809538241   0.124973529093199   1.0000000
B2   B   0.722315881242135   0.444425024231950   0.124768258972641   1.0000000
B2   B   0.222214939667674   0.611118393665678   0.625127626072378   1.0000000
B2   B   0.055559679270123   0.111059095957490   0.625217260873156   1.0000000
B2   B   0.555594679213661   0.611189358427297   0.625002643321712   1.0000000
B2   B   0.388908309101379   0.111017452091211   0.625231741027358   1.0000000
B2   B   0.888903453998007   0.611118393665678   0.625127626072378   1.0000000
B2   B   0.055589491089151   0.611178982178295   0.125003157531857   1.0000000
B2   B   0.722256941082919   0.111076392250414   0.625023457974958   1.0000000
B2   B   0.222109142989831   0.111017452091211   0.124768258972641   1.0000000
B2   B   0.388908309101379   0.611224190343491   0.124768258972641   1.0000000
B2   B   0.722315881242135   0.611224190343491   0.124768258972641   1.0000000
B2   B   0.555499416687365   0.111059095957490   0.124782739126840   1.0000000
B2   B   0.388908309101379   0.611224190343491   0.625231741027358   1.0000000
B2   B   0.888819451167495   0.111076392250414   0.124976542025041   1.0000000
B2   B   0.222154351155038   0.777743842244182   0.624996842468137   1.0000000
B2   B   0.055559679270123   0.277833916645970   0.625217260873156   1.0000000
B2   B   0.388785785678403   0.277571571356817   0.623588281544764   1.0000000
B2   B   0.555499416687365   0.777773654063208   0.625217260873156   1.0000000
B2   B   0.888839972790539   0.777755758722365   0.625111172121508   1.0000000
B2   B   0.722274237375855   0.277833916645970   0.625217260873156   1.0000000
B2   B   0.055589491089151   0.777743842244182   0.125003157531857   1.0000000
B2   B   0.388915785931804   0.777755758722365   0.124888827878488   1.0000000
B2   B   0.222143974906037   0.277738654119687   0.124997356678310   1.0000000
B2   B   0.722274237375855   0.777773654063208   0.124782739126840   1.0000000
B2   B   0.555594679213661   0.277738654119687   0.124997356678310   1.0000000
B2   B   0.888888523795088   0.277777047590183   0.124973529093199   1.0000000
B2   B   0.055577574610984   0.444417547401525   0.625111172121508   1.0000000
B2   B   0.222214939667674   0.944429879335321   0.625127626072378   1.0000000
B2   B   0.555556285743163   0.944444809538241   0.625026470906808   1.0000000
B2   B   0.388785785678403   0.444547547654925   0.623588281544764   1.0000000
B2   B   0.888888523795088   0.944444809538241   0.625026470906808   1.0000000
B2   B   0.055577574610984   0.944493360542790   0.124888827878488   1.0000000
B2   B   0.722315881242135   0.444425024231950   0.625231741027358   1.0000000
B2   B   0.388915785931804   0.944493360542790   0.124888827878488   1.0000000
B2   B   0.222109142989831   0.444425024231950   0.124768258972641   1.0000000
B2   B   0.222214939667674   0.611118393665678   0.124872373927608   1.0000000
B2   B   0.555761761976522   0.444547547654925   0.126411718455233   1.0000000
B2   B   0.722256941082919   0.944513882165834   0.124976542025041   1.0000000
B2   B   0.888839972790539   0.444417547401525   0.124888827878488   1.0000000
B2   B   0.055589491089151   0.611178982178295   0.624996842468137   1.0000000
B2   B   0.222109142989831   0.111017452091211   0.625231741027358   1.0000000
B2   B   0.722315881242135   0.611224190343491   0.625231741027358   1.0000000
B2   B   0.555499416687365   0.111059095957490   0.625217260873156   1.0000000
B2   B   0.888819451167495   0.111076392250414   0.625023457974958   1.0000000


