data_1
_audit_creation_method   'vasp2cif'
_cell_length_a    17.52789999999977
_cell_length_b    17.52789999999977
_cell_length_c    15.0
_cell_angle_alpha    90.0
_cell_angle_beta    90.0
_cell_angle_gamma    119.99999999999916

_symmetry_space_group_name_H-M    'P 1'
loop_
_atom_site_label
_atom_site_type_symbol
_atom_site_fract_x
_atom_site_fract_y
_atom_site_fract_z
_atom_site_occupancy
In2   In   0.434990849648335   0.503210627448175   0.111297513848448   1.0000000
B2   B   0.905104729351363   0.952631635941666   0.111010318114402   1.0000000
B2   B   0.906350307549666   0.096266009842928   0.111046818180428   1.0000000
B2   B   0.906751197114616   0.239089945402806   0.111115588199876   1.0000000
B2   B   0.906350307549666   0.381512991397735   0.111046818180428   1.0000000
B2   B   0.905104729351363   0.523903498657713   0.111010318114402   1.0000000
B2   B   0.903544972172326   0.666210838338756   0.111080075736499   1.0000000
B2   B   0.903544972172326   0.808764539081586   0.111080075736499   1.0000000
B2   B   0.046564302031527   0.951117326161065   0.111002203846910   1.0000000
B2   B   0.047474607148581   0.094208907174106   0.110987766062523   1.0000000
B2   B   0.049351551389604   0.238731558289280   0.111028850757602   1.0000000
B2   B   0.049351551389604   0.382050398347323   0.111028850757602   1.0000000
B2   B   0.047474607148581   0.524696105222469   0.110987766062523   1.0000000
B2   B   0.046564302031527   0.666879092674481   0.111002203846910   1.0000000
B2   B   0.046314018409540   0.808873067606779   0.111006817630964   1.0000000
B2   B   0.189306285262540   0.950998164168621   0.111021887537085   1.0000000
B2   B   0.189297054257543   0.092423381158082   0.111027730511475   1.0000000
B2   B   0.189467332089561   0.234718659537487   0.110975159964994   1.0000000
B2   B   0.192971853069200   0.382201129158107   0.111017514640622   1.0000000
B2   B   0.189467332089561   0.526179077800090   0.110975159964994   1.0000000
B2   B   0.189297054257543   0.668304078347456   0.111027730511475   1.0000000
B2   B   0.189306285262540   0.809740237897937   0.111021887537085   1.0000000
B2   B   0.332785522831944   0.952108819817477   0.111035817681952   1.0000000
B2   B   0.332702470148096   0.091825584160383   0.111063719738280   1.0000000
B2   B   0.332327408325899   0.230529152173552   0.111019073611705   1.0000000
B2   B   0.329937328628673   0.365355893285214   0.111138193581140   1.0000000
B2   B   0.329937328628673   0.536011840590459   0.111138193581140   1.0000000
B2   B   0.332327408325899   0.673228661399354   0.111019073611705   1.0000000
B2   B   0.332702470148096   0.812307291234706   0.111063719738280   1.0000000
B2   B   0.476786301980690   0.954201765874376   0.111002806528916   1.0000000
B2   B   0.476786301980690   0.094014941353321   0.111002806528916   1.0000000
B2   B   0.476919738427563   0.233649022600753   0.111014523243691   1.0000000
B2   B   0.478958633199975   0.373917810042265   0.111050457743875   1.0000000
B2   B   0.478958633199975   0.676471228404717   0.111050457743875   1.0000000
B2   B   0.476919738427563   0.814701121073816   0.111014523243691   1.0000000
B2   B   0.620712278454020   0.954809722999610   0.110993087715079   1.0000000
B2   B   0.620629457310911   0.096029075500954   0.110985934930210   1.0000000
B2   B   0.620712278454020   0.237332960701403   0.110993087715079   1.0000000
B2   B   0.620960674388217   0.379138725076900   0.111025042848958   1.0000000
B2   B   0.619089053562534   0.521001095231337   0.111059743370621   1.0000000
B2   B   0.619089053562534   0.669518363579192   0.111059743370621   1.0000000
B2   B   0.620960674388217   0.813252354558337   0.111025042848958   1.0000000
B2   B   0.763599546956803   0.954272071744982   0.111004977270402   1.0000000
B2   B   0.763847057127626   0.096626070133090   0.111038656354538   1.0000000
B2   B   0.763847057127626   0.238649680685533   0.111038656354538   1.0000000
B2   B   0.763599546956803   0.380757880458814   0.111004977270402   1.0000000
B2   B   0.762641425336116   0.523130918967651   0.111080055078012   1.0000000
B2   B   0.759808159509136   0.665619282378565   0.111148101451189   1.0000000
B2   B   0.762641425336116   0.810940911616481   0.111080055078012   1.0000000
N2   N   0.951682921275447   0.904120011742761   0.111001340715662   1.0000000
N2   N   0.952892566570878   0.047748054573394   0.110968335835068   1.0000000
N2   N   0.954400410295658   0.191598566452520   0.111043907789964   1.0000000
N2   N   0.954400410295658   0.334228825961136   0.111043907789964   1.0000000
N2   N   0.952892566570878   0.476571494115482   0.110968335835068   1.0000000
N2   N   0.951682921275447   0.618991603207674   0.111001340715662   1.0000000
N2   N   0.951306783184252   0.761367738429628   0.111041675516748   1.0000000
N2   N   0.094206847200358   0.903801398639319   0.110972413581950   1.0000000
N2   N   0.094444931671645   0.046109742197524   0.110961197334697   1.0000000
N2   N   0.095197433486914   0.189318056466601   0.110942890611879   1.0000000
N2   N   0.097870970476732   0.334649832075367   0.110983374598787   1.0000000
N2   N   0.095197433486914   0.477308070694314   0.110942890611879   1.0000000
N2   N   0.094444931671645   0.619763883149123   0.110961197334697   1.0000000
N2   N   0.094206847200358   0.761835853792037   0.110972413581950   1.0000000
N2   N   0.237430100341708   0.904430252786346   0.110986195932061   1.0000000
N2   N   0.237364128602087   0.045578130332999   0.111022532348303   1.0000000
N2   N   0.237213727229597   0.187063558952318   0.110974441262055   1.0000000
N2   N   0.237804981959671   0.330294679786741   0.110977303210154   1.0000000
N2   N   0.237804981959671   0.478938995846916   0.110977303210154   1.0000000
N2   N   0.237213727229597   0.621578861952275   0.110974441262055   1.0000000
N2   N   0.237364128602087   0.763214691944084   0.111022532348303   1.0000000
N2   N   0.381288657131689   0.906481958878538   0.111012672595434   1.0000000
N2   N   0.381288657131689   0.046235391928154   0.111012672595434   1.0000000
N2   N   0.381210957438591   0.185605044574741   0.111007157571609   1.0000000
N2   N   0.380981811411169   0.324021815282384   0.110981629763696   1.0000000
N2   N   0.380981811411169   0.628388689803780   0.110981629763696   1.0000000
N2   N   0.381210957438591   0.767034606538852   0.111007157571609   1.0000000
N2   N   0.525344418753628   0.908580979221293   0.110968082367160   1.0000000
N2   N   0.525288347948121   0.048357665033564   0.110953672518835   1.0000000
N2   N   0.525344418753628   0.188192133207338   0.110968082367160   1.0000000
N2   N   0.525738449074301   0.327386669245292   0.111001621749413   1.0000000
N2   N   0.527084258567348   0.465767212971914   0.111000256451566   1.0000000
N2   N   0.527084258567348   0.632745739270416   0.111000256451566   1.0000000
N2   N   0.525738449074301   0.769780473504005   0.111001621749413   1.0000000
N2   N   0.668749468459474   0.907956253740042   0.110977202784140   1.0000000
N2   N   0.668739582767386   0.049431034726959   0.110973362889640   1.0000000
N2   N   0.668739582767386   0.190735530159427   0.110973362889640   1.0000000
N2   N   0.668749468459474   0.332221908394456   0.110977202784140   1.0000000
N2   N   0.668463281681716   0.474546695772633   0.111039682024527   1.0000000
N2   N   0.664569092468103   0.617998893072050   0.111081295732658   1.0000000
N2   N   0.668463281681716   0.765345279584079   0.111039682024527   1.0000000
N2   N   0.810531067085556   0.906116719195596   0.111009885313872   1.0000000
N2   N   0.811454274386245   0.049285283348615   0.111004363958322   1.0000000
N2   N   0.811728031435633   0.191577506776816   0.111047717370991   1.0000000
N2   N   0.811454274386245   0.333595973155628   0.111004363958322   1.0000000
N2   N   0.810531067085556   0.475843041563968   0.111009885313872   1.0000000
N2   N   0.808605952529085   0.618506236789796   0.111110038856107   1.0000000
N2   N   0.808605952529085   0.761528409414306   0.111110038856107   1.0000000


