data_1
_audit_creation_method   'vasp2cif'
_cell_length_a    14.93631414619966
_cell_length_b    14.936314146199727
_cell_length_c    13.341276283792837
_cell_angle_alpha    90.0
_cell_angle_beta    90.0
_cell_angle_gamma    119.99999999999984

_symmetry_space_group_name_H-M    'P 1'
loop_
_atom_site_label
_atom_site_type_symbol
_atom_site_fract_x
_atom_site_fract_y
_atom_site_fract_z
_atom_site_occupancy
N2   N   0.111109654202296   0.055555080804599   0.125037537630042   1.0000000
N2   N   0.611132293495385   0.555597920324098   0.124394878514884   1.0000000
N2   N   0.444447780479657   0.055557988038742   0.125017571120135   1.0000000
N2   N   0.944442011961259   0.555552219520343   0.125017571120135   1.0000000
N2   N   0.777778054389614   0.055555693861475   0.125035634589746   1.0000000
N2   N   0.111108857238023   0.722221095285675   0.624986145011396   1.0000000
N2   N   0.444447780479657   0.722223125774251   0.624982428879865   1.0000000
N2   N   0.277774267794602   0.222221671913094   0.624969741133709   1.0000000
N2   N   0.777778328086906   0.722225732205398   0.624969741133709   1.0000000
N2   N   0.611114070785164   0.222221671913094   0.624969741133709   1.0000000
N2   N   0.944444306138525   0.222221945610386   0.624964365410254   1.0000000
N2   N   0.277778904714324   0.722221095285675   0.125013854988604   1.0000000
N2   N   0.111107870508895   0.222220601921112   0.125051114406516   1.0000000
N2   N   0.444444882078170   0.222223097489676   0.124956644304130   1.0000000
N2   N   0.611114070785164   0.722225732205398   0.125030258866291   1.0000000
N2   N   0.944442011961259   0.722223125774251   0.125017571120135   1.0000000
N2   N   0.777779398078888   0.222220601921112   0.125051114406516   1.0000000
N2   N   0.111109276678518   0.888890723321482   0.624990582055403   1.0000000
N2   N   0.444448113309636   0.888890723321482   0.624990582055403   1.0000000
N2   N   0.277774267794602   0.388885929214836   0.624969741133709   1.0000000
N2   N   0.611132293495385   0.388867706504615   0.625605121485116   1.0000000
N2   N   0.777779398078888   0.888892129491105   0.624948885593484   1.0000000
N2   N   0.944444919195402   0.388887906731025   0.624962462369958   1.0000000
N2   N   0.111109654202296   0.388887906731025   0.125037537630042   1.0000000
N2   N   0.277778904714324   0.888891142761977   0.125013854988604   1.0000000
N2   N   0.611112093268975   0.888890345797704   0.125037537630042   1.0000000
N2   N   0.444402079675902   0.388867706504615   0.124394878514884   1.0000000
N2   N   0.944444919195402   0.888890345797704   0.125037537630042   1.0000000
N2   N   0.777778328086906   0.388885929214836   0.125030258866291   1.0000000
N2   N   0.277776874225748   0.555552219520343   0.624982428879865   1.0000000
N2   N   0.111109654202296   0.055555080804599   0.624962462369958   1.0000000
N2   N   0.611132293495385   0.555597920324098   0.625605121485116   1.0000000
N2   N   0.444447780479657   0.055557988038742   0.624982428879865   1.0000000
N2   N   0.944442011961259   0.555552219520343   0.624982428879865   1.0000000
N2   N   0.111109276678518   0.555551886690365   0.125009417944596   1.0000000
N2   N   0.777778054389614   0.055555693861475   0.624964365410254   1.0000000
N2   N   0.277776874225748   0.055557988038742   0.125017571120135   1.0000000
N2   N   0.444444882078170   0.555555117921830   0.124956644304130   1.0000000
N2   N   0.777776902510325   0.555555117921830   0.124956644304130   1.0000000
N2   N   0.611112093268975   0.055555080804599   0.125037537630042   1.0000000
N2   N   0.444444882078170   0.555555117921830   0.625043355695870   1.0000000
N2   N   0.944444306138525   0.055555693861475   0.125035634589746   1.0000000
N2   N   0.277778904714324   0.722221095285675   0.624986145011396   1.0000000
N2   N   0.111107870508895   0.222220601921112   0.624948885593484   1.0000000
N2   N   0.444444882078170   0.222223097489676   0.625043355695870   1.0000000
N2   N   0.611114070785164   0.722225732205398   0.624969741133709   1.0000000
N2   N   0.944442011961259   0.722223125774251   0.624982428879865   1.0000000
N2   N   0.777779398078888   0.222220601921112   0.624948885593484   1.0000000
N2   N   0.111108857238023   0.722221095285675   0.125013854988604   1.0000000
N2   N   0.444447780479657   0.722223125774251   0.125017571120135   1.0000000
N2   N   0.277774267794602   0.222221671913094   0.125030258866291   1.0000000
N2   N   0.777778328086906   0.722225732205398   0.125030258866291   1.0000000
N2   N   0.611114070785164   0.222221671913094   0.125030258866291   1.0000000
N2   N   0.944444306138525   0.222221945610386   0.125035634589746   1.0000000
N2   N   0.111109654202296   0.388887906731025   0.624962462369958   1.0000000
N2   N   0.277778904714324   0.888891142761977   0.624986145011396   1.0000000
N2   N   0.611112093268975   0.888890345797704   0.624962462369958   1.0000000
N2   N   0.444402079675902   0.388867706504615   0.625605121485116   1.0000000
N2   N   0.944444919195402   0.888890345797704   0.624962462369958   1.0000000
N2   N   0.111109276678518   0.888890723321482   0.125009417944596   1.0000000
N2   N   0.777778328086906   0.388885929214836   0.624969741133709   1.0000000
N2   N   0.444448113309636   0.888890723321482   0.125009417944596   1.0000000
N2   N   0.277774267794602   0.388885929214836   0.125030258866291   1.0000000
N2   N   0.277776874225748   0.555552219520343   0.125017571120135   1.0000000
N2   N   0.611132293495385   0.388867706504615   0.124394878514884   1.0000000
N2   N   0.777779398078888   0.888892129491105   0.125051114406516   1.0000000
N2   N   0.944444919195402   0.388887906731025   0.125037537630042   1.0000000
N2   N   0.111109276678518   0.555551886690365   0.624990582055403   1.0000000
N2   N   0.277776874225748   0.055557988038742   0.624982428879865   1.0000000
N2   N   0.777776902510325   0.555555117921830   0.625043355695870   1.0000000
N2   N   0.611112093268975   0.055555080804599   0.624962462369958   1.0000000
N2   N   0.944444306138525   0.055555693861475   0.624964365410254   1.0000000
N2   N   0.056069287886952   0.111452836321660   0.375000000000000   1.0000000
N2   N   0.554707672393244   0.606454691640250   0.375000000000000   1.0000000
N2   N   0.389060229980580   0.111453793294503   0.375000000000000   1.0000000
N2   N   0.888546206705496   0.610939770019420   0.375000000000000   1.0000000
N2   N   0.722050215101372   0.111452836321660   0.375000000000000   1.0000000
N2   N   0.055557606947298   0.777779440770212   0.875000000000000   1.0000000
N2   N   0.388888500489577   0.777779440770212   0.875000000000000   1.0000000
N2   N   0.222222031354338   0.277777682343837   0.875000000000000   1.0000000
N2   N   0.722222317656163   0.777777968645662   0.875000000000000   1.0000000
N2   N   0.555552850258093   0.277773604496923   0.875000000000000   1.0000000
N2   N   0.888890307937828   0.277779272526367   0.875000000000000   1.0000000
N2   N   0.222222222222221   0.777777777777779   0.375000000000000   1.0000000
N2   N   0.056069287886952   0.277949784898627   0.375000000000000   1.0000000
N2   N   0.393545308359749   0.281586314086329   0.375000000000000   1.0000000
N2   N   0.555561882465926   0.776147339618529   0.375000000000000   1.0000000
N2   N   0.887252123819267   0.776147339618529   0.375000000000000   1.0000000
N2   N   0.721360531735688   0.278639468264312   0.375000000000000   1.0000000
N2   N   0.055556083587960   0.944443916412040   0.875000000000000   1.0000000
N2   N   0.388888500489577   0.944442393052701   0.875000000000000   1.0000000
N2   N   0.222220518674461   0.444446217161822   0.875000000000000   1.0000000
N2   N   0.555555555555557   0.444444444444443   0.875000000000000   1.0000000
N2   N   0.722220727473633   0.944444368744798   0.875000000000000   1.0000000
N2   N   0.888892365154026   0.444446217161822   0.875000000000000   1.0000000
N2   N   0.055486148499752   0.444305630332833   0.375000000000000   1.0000000
N2   N   0.222274106847851   0.944686128340407   0.375000000000000   1.0000000
N2   N   0.555694369667167   0.944513851500248   0.375000000000000   1.0000000
N2   N   0.393545308359749   0.445292327606756   0.375000000000000   1.0000000
N2   N   0.888547163678340   0.943930712113048   0.375000000000000   1.0000000
N2   N   0.718413685913670   0.445292327606756   0.375000000000000   1.0000000
N2   N   0.222220559229789   0.611111499510422   0.875000000000000   1.0000000
N2   N   0.055555631255203   0.111109692062172   0.875000000000000   1.0000000
N2   N   0.555552850258093   0.611112579094505   0.875000000000000   1.0000000
N2   N   0.388886514246159   0.111106361825661   0.875000000000000   1.0000000
N2   N   0.888893638174339   0.611113485753841   0.875000000000000   1.0000000
N2   N   0.055313871659592   0.610921311840780   0.375000000000000   1.0000000
N2   N   0.722220727473633   0.111109692062172   0.875000000000000   1.0000000
N2   N   0.223852660381472   0.112747876180733   0.375000000000000   1.0000000
N2   N   0.389060229980580   0.610939770019420   0.375000000000000   1.0000000
N2   N   0.718413685913670   0.606454691640250   0.375000000000000   1.0000000
N2   N   0.555561882465926   0.112747876180733   0.375000000000000   1.0000000
N2   N   0.388886514246159   0.611113485753841   0.875000000000000   1.0000000
N2   N   0.888888888888886   0.111111111111114   0.375000000000000   1.0000000
N2   N   0.222222222222221   0.777777777777779   0.875000000000000   1.0000000
N2   N   0.055555631255203   0.277779272526367   0.875000000000000   1.0000000
N2   N   0.388887420905494   0.277773604496923   0.875000000000000   1.0000000
N2   N   0.555553782838178   0.777779481325539   0.875000000000000   1.0000000
N2   N   0.888892365154026   0.777779481325539   0.875000000000000   1.0000000
N2   N   0.722222317656163   0.277777682343837   0.875000000000000   1.0000000
N2   N   0.055313871659592   0.777725893152148   0.375000000000000   1.0000000
N2   N   0.389078688159220   0.777725893152148   0.375000000000000   1.0000000
N2   N   0.223945603195287   0.278639468264312   0.375000000000000   1.0000000
N2   N   0.721360531735688   0.776054396804713   0.375000000000000   1.0000000
N2   N   0.554707672393244   0.281586314086329   0.375000000000000   1.0000000
N2   N   0.888547163678340   0.277949784898627   0.375000000000000   1.0000000
N2   N   0.055556083587960   0.444445500509250   0.875000000000000   1.0000000
N2   N   0.222220559229789   0.944442393052701   0.875000000000000   1.0000000
N2   N   0.555554499490751   0.944443916412040   0.875000000000000   1.0000000
N2   N   0.388887420905494   0.444447149741908   0.875000000000000   1.0000000
N2   N   0.888890307937828   0.944444368744798   0.875000000000000   1.0000000
N2   N   0.055486148499752   0.944513851500248   0.375000000000000   1.0000000
N2   N   0.722226395503077   0.444447149741908   0.875000000000000   1.0000000
N2   N   0.389078688159220   0.944686128340407   0.375000000000000   1.0000000
N2   N   0.223852660381472   0.444438117534074   0.375000000000000   1.0000000
N2   N   0.222274106847851   0.610921311840780   0.375000000000000   1.0000000
N2   N   0.722050215101372   0.943930712113048   0.375000000000000   1.0000000
N2   N   0.887252123819267   0.444438117534074   0.375000000000000   1.0000000
N2   N   0.055557606947298   0.611111499510422   0.875000000000000   1.0000000
N2   N   0.222220518674461   0.111107634845974   0.875000000000000   1.0000000
N2   N   0.722226395503077   0.611112579094505   0.875000000000000   1.0000000
N2   N   0.555553782838178   0.111107634845974   0.875000000000000   1.0000000
N2   N   0.888888888888886   0.111111111111114   0.875000000000000   1.0000000
B2   B   0.111982934274675   0.056232831302696   0.375000000000000   1.0000000
B2   B   0.606318512948201   0.545970359229731   0.375000000000000   1.0000000
B2   B   0.444499315583078   0.055940401819017   0.375000000000000   1.0000000
B2   B   0.944059598180983   0.555500684416922   0.375000000000000   1.0000000
B2   B   0.777561865488811   0.055447599411074   0.375000000000000   1.0000000
B2   B   0.111110370656302   0.722221851994815   0.875000000000000   1.0000000
B2   B   0.444441913489330   0.722216583574694   0.875000000000000   1.0000000
B2   B   0.277793066749116   0.222229737824309   0.875000000000000   1.0000000
B2   B   0.777770262175691   0.722206933250885   0.875000000000000   1.0000000
B2   B   0.611103337741865   0.222229737824309   0.875000000000000   1.0000000
B2   B   0.944446536939228   0.222226407211793   0.875000000000000   1.0000000
B2   B   0.277850359150655   0.722149640849345   0.375000000000000   1.0000000
B2   B   0.112150146121072   0.222741739727200   0.375000000000000   1.0000000
B2   B   0.444520915076507   0.222375163486350   0.375000000000000   1.0000000
B2   B   0.610524199898197   0.719177570546634   0.375000000000000   1.0000000
B2   B   0.944059598180983   0.721892247097397   0.375000000000000   1.0000000
B2   B   0.777258260272800   0.222741739727200   0.375000000000000   1.0000000
B2   B   0.111112551596459   0.888887448403541   0.875000000000000   1.0000000
B2   B   0.444441563473753   0.888887448403541   0.875000000000000   1.0000000
B2   B   0.277793066749116   0.388896662258135   0.875000000000000   1.0000000
B2   B   0.611102668302018   0.388897331697982   0.875000000000000   1.0000000
B2   B   0.777772594349491   0.888878522032311   0.875000000000000   1.0000000
B2   B   0.944444265307075   0.388895419264190   0.875000000000000   1.0000000
B2   B   0.111982934274675   0.389083436305308   0.375000000000000   1.0000000
B2   B   0.277850359150655   0.889034051634639   0.375000000000000   1.0000000
B2   B   0.610916563694692   0.888017065725324   0.375000000000000   1.0000000
B2   B   0.454029640770269   0.393681487051799   0.375000000000000   1.0000000
B2   B   0.943767168697304   0.888017065725324   0.375000000000000   1.0000000
B2   B   0.775320037315109   0.389475800101803   0.375000000000000   1.0000000
B2   B   0.277783416425306   0.555558086510670   0.875000000000000   1.0000000
B2   B   0.111117820623786   0.055555734692924   0.875000000000000   1.0000000
B2   B   0.611102668302018   0.555538669937364   0.875000000000000   1.0000000
B2   B   0.444441913489330   0.055558663247971   0.875000000000000   1.0000000
B2   B   0.944441336752029   0.555558086510670   0.875000000000000   1.0000000
B2   B   0.111067649776119   0.555468632885567   0.375000000000000   1.0000000
B2   B   0.777773592788207   0.055553463060771   0.875000000000000   1.0000000
B2   B   0.278107752902603   0.055940401819017   0.375000000000000   1.0000000
B2   B   0.444520915076507   0.555479084923493   0.375000000000000   1.0000000
B2   B   0.777624836513650   0.555479084923493   0.375000000000000   1.0000000
B2   B   0.610916563694692   0.056232831302696   0.375000000000000   1.0000000
B2   B   0.444449547867042   0.555550452132958   0.875000000000000   1.0000000
B2   B   0.944552400588926   0.055447599411074   0.375000000000000   1.0000000
B2   B   0.277778148005184   0.722221851994815   0.875000000000000   1.0000000
B2   B   0.111121477967689   0.222227405650508   0.875000000000000   1.0000000
B2   B   0.444449547867042   0.222232429067420   0.875000000000000   1.0000000
B2   B   0.611103337741865   0.722206933250885   0.875000000000000   1.0000000
B2   B   0.944441336752029   0.722216583574694   0.875000000000000   1.0000000
B2   B   0.777772594349491   0.222227405650508   0.875000000000000   1.0000000
B2   B   0.110965948365361   0.722149640849345   0.375000000000000   1.0000000
B2   B   0.444499315583078   0.721892247097397   0.375000000000000   1.0000000
B2   B   0.280822429453366   0.224679962684891   0.375000000000000   1.0000000
B2   B   0.775320037315109   0.719177570546634   0.375000000000000   1.0000000
B2   B   0.610524199898197   0.224679962684891   0.375000000000000   1.0000000
B2   B   0.944552400588926   0.222438134511188   0.375000000000000   1.0000000
B2   B   0.111117820623786   0.388895419264190   0.875000000000000   1.0000000
B2   B   0.277778148005184   0.888889629343697   0.875000000000000   1.0000000
B2   B   0.611104580735811   0.888882179376214   0.875000000000000   1.0000000
B2   B   0.444461330062636   0.388897331697982   0.875000000000000   1.0000000
B2   B   0.944444265307075   0.888882179376214   0.875000000000000   1.0000000
B2   B   0.111067649776119   0.888932350223881   0.375000000000000   1.0000000
B2   B   0.777770262175691   0.388896662258135   0.875000000000000   1.0000000
B2   B   0.444531367114433   0.888932350223881   0.375000000000000   1.0000000
B2   B   0.280822429453366   0.389475800101803   0.375000000000000   1.0000000
B2   B   0.278107752902603   0.555500684416922   0.375000000000000   1.0000000
B2   B   0.606318512948201   0.393681487051799   0.375000000000000   1.0000000
B2   B   0.777258260272800   0.887849853878928   0.375000000000000   1.0000000
B2   B   0.943767168697304   0.389083436305308   0.375000000000000   1.0000000
B2   B   0.111112551596459   0.555558436526247   0.875000000000000   1.0000000
B2   B   0.277783416425306   0.055558663247971   0.875000000000000   1.0000000
B2   B   0.777767570932581   0.555550452132958   0.875000000000000   1.0000000
B2   B   0.611104580735811   0.055555734692924   0.875000000000000   1.0000000
B2   B   0.944446536939228   0.055553463060771   0.875000000000000   1.0000000
B2   B   0.055562282082327   0.111112873438019   0.125004493461024   1.0000000
B2   B   0.555574702876807   0.611066670141861   0.124834497303720   1.0000000
B2   B   0.388908060578524   0.111149454490390   0.125001303318997   1.0000000
B2   B   0.888850545509610   0.611091939421476   0.125001303318997   1.0000000
B2   B   0.722217258022356   0.111112873438019   0.125004493461024   1.0000000
B2   B   0.055545574633226   0.777773002866800   0.625000547745732   1.0000000
B2   B   0.388894094900238   0.777773002866800   0.625000547745732   1.0000000
B2   B   0.222242964191994   0.277788148762665   0.625003465131826   1.0000000
B2   B   0.722211851237335   0.777757035808006   0.625003465131826   1.0000000
B2   B   0.555574702876807   0.277841366068281   0.625165502696280   1.0000000
B2   B   0.888887126561981   0.277782741977644   0.624995506538976   1.0000000
B2   B   0.222222222222221   0.777777777777779   0.125001328169696   1.0000000
B2   B   0.055562282082327   0.277782741977644   0.125004493461024   1.0000000
B2   B   0.388933329858139   0.277841366068281   0.124834497303720   1.0000000
B2   B   0.555556731158654   0.777762766616365   0.125007824930230   1.0000000
B2   B   0.888872702124376   0.777762766616365   0.125007824930230   1.0000000
B2   B   0.722211851237335   0.277788148762665   0.124996534868174   1.0000000
B2   B   0.055556753771138   0.944443246228862   0.624993990605463   1.0000000
B2   B   0.388894094900238   0.944454425366774   0.625000547745732   1.0000000
B2   B   0.222237233383635   0.444443268841346   0.624992175069770   1.0000000
B2   B   0.555555555555557   0.444444444444443   0.624790399240721   1.0000000
B2   B   0.722217258022356   0.944437717917673   0.624995506538976   1.0000000
B2   B   0.888872702124376   0.444443268841346   0.624992175069770   1.0000000
B2   B   0.055556753771138   0.444446840875605   0.125006009394536   1.0000000
B2   B   0.222226997133200   0.944454425366774   0.124999452254268   1.0000000
B2   B   0.555553159124395   0.944443246228862   0.125006009394536   1.0000000
B2   B   0.388933329858139   0.444425297123193   0.124834497303720   1.0000000
B2   B   0.888887126561981   0.944437717917673   0.125004493461024   1.0000000
B2   B   0.722158633931719   0.444425297123193   0.124834497303720   1.0000000
B2   B   0.222226997133200   0.611105905099762   0.625000547745732   1.0000000
B2   B   0.055562282082327   0.111112873438019   0.624995506538976   1.0000000
B2   B   0.555574702876807   0.611066670141861   0.625165502696280   1.0000000
B2   B   0.388908060578524   0.111149454490390   0.624998696681003   1.0000000
B2   B   0.888850545509610   0.611091939421476   0.624998696681003   1.0000000
B2   B   0.055545574633226   0.611105905099762   0.124999452254268   1.0000000
B2   B   0.722217258022356   0.111112873438019   0.624995506538976   1.0000000
B2   B   0.222237233383635   0.111127297875625   0.125007824930230   1.0000000
B2   B   0.388908060578524   0.611091939421476   0.125001303318997   1.0000000
B2   B   0.722158633931719   0.611066670141861   0.124834497303720   1.0000000
B2   B   0.555556731158654   0.111127297875625   0.125007824930230   1.0000000
B2   B   0.388908060578524   0.611091939421476   0.624998696681003   1.0000000
B2   B   0.888888888888886   0.111111111111114   0.124999874845458   1.0000000
B2   B   0.222222222222221   0.777777777777779   0.624998671830304   1.0000000
B2   B   0.055562282082327   0.277782741977644   0.624995506538976   1.0000000
B2   B   0.388933329858139   0.277841366068281   0.625165502696280   1.0000000
B2   B   0.555556731158654   0.777762766616365   0.624992175069770   1.0000000
B2   B   0.888872702124376   0.777762766616365   0.624992175069770   1.0000000
B2   B   0.722211851237335   0.277788148762665   0.625003465131826   1.0000000
B2   B   0.055545574633226   0.777773002866800   0.124999452254268   1.0000000
B2   B   0.388894094900238   0.777773002866800   0.124999452254268   1.0000000
B2   B   0.222242964191994   0.277788148762665   0.124996534868174   1.0000000
B2   B   0.722211851237335   0.777757035808006   0.124996534868174   1.0000000
B2   B   0.555574702876807   0.277841366068281   0.124834497303720   1.0000000
B2   B   0.888887126561981   0.277782741977644   0.125004493461024   1.0000000
B2   B   0.055556753771138   0.444446840875605   0.624993990605463   1.0000000
B2   B   0.222226997133200   0.944454425366774   0.625000547745732   1.0000000
B2   B   0.555553159124395   0.944443246228862   0.624993990605463   1.0000000
B2   B   0.388933329858139   0.444425297123193   0.625165502696280   1.0000000
B2   B   0.888887126561981   0.944437717917673   0.624995506538976   1.0000000
B2   B   0.055556753771138   0.944443246228862   0.125006009394536   1.0000000
B2   B   0.722158633931719   0.444425297123193   0.625165502696280   1.0000000
B2   B   0.388894094900238   0.944454425366774   0.124999452254268   1.0000000
B2   B   0.222237233383635   0.444443268841346   0.125007824930230   1.0000000
B2   B   0.222226997133200   0.611105905099762   0.124999452254268   1.0000000
B2   B   0.555555555555557   0.444444444444443   0.125209600759279   1.0000000
B2   B   0.722217258022356   0.944437717917673   0.125004493461024   1.0000000
B2   B   0.888872702124376   0.444443268841346   0.125007824930230   1.0000000
B2   B   0.055545574633226   0.611105905099762   0.625000547745732   1.0000000
B2   B   0.222237233383635   0.111127297875625   0.624992175069770   1.0000000
B2   B   0.722158633931719   0.611066670141861   0.625165502696280   1.0000000
B2   B   0.555556731158654   0.111127297875625   0.624992175069770   1.0000000
B2   B   0.888888888888886   0.111111111111114   0.625000125154543   1.0000000


