data_1
_audit_creation_method   'vasp2cif'
_cell_length_a    17.52789999999977
_cell_length_b    17.52789999999977
_cell_length_c    15.0
_cell_angle_alpha    90.0
_cell_angle_beta    90.0
_cell_angle_gamma    119.99999999999916

_symmetry_space_group_name_H-M    'P 1'
loop_
_atom_site_label
_atom_site_type_symbol
_atom_site_fract_x
_atom_site_fract_y
_atom_site_fract_z
_atom_site_occupancy
Al2   Al   0.531685074300844   0.628901599128576   0.110994266572453   1.0000000
B2   B   0.909433388368475   0.955582093892146   0.110920222637473   1.0000000
B2   B   0.904154464118006   0.094791665766813   0.111019006689461   1.0000000
B2   B   0.902627289710181   0.236666349015335   0.111039259085955   1.0000000
B2   B   0.903479074384923   0.379829116693247   0.110984980212751   1.0000000
B2   B   0.907600912916744   0.524162638217003   0.111009306305312   1.0000000
B2   B   0.913461019650374   0.669408063744992   0.110998150563300   1.0000000
B2   B   0.914188005942240   0.815139106664824   0.110955222125826   1.0000000
B2   B   0.051144012831544   0.954090242277609   0.111026590065835   1.0000000
B2   B   0.046895951536613   0.094109213058407   0.111021893744346   1.0000000
B2   B   0.043733569514185   0.235403818480514   0.110981460494644   1.0000000
B2   B   0.043332264504890   0.378851952389283   0.110975814300328   1.0000000
B2   B   0.045510940774342   0.523322680130600   0.110992022951929   1.0000000
B2   B   0.049921875291058   0.667827553362175   0.111032168693024   1.0000000
B2   B   0.051994132027941   0.811602673322422   0.111080279736521   1.0000000
B2   B   0.192032549027107   0.952721852768200   0.111081613749182   1.0000000
B2   B   0.189468394214742   0.093104486214930   0.111088604336017   1.0000000
B2   B   0.184172702076965   0.232411576295970   0.111030671817304   1.0000000
B2   B   0.182413811751341   0.376299468845437   0.111020009826962   1.0000000
B2   B   0.182966828214301   0.522401750031493   0.111096884833324   1.0000000
B2   B   0.187423662578557   0.667345300075125   0.111122422388511   1.0000000
B2   B   0.191559812947476   0.810618773850195   0.111049169835670   1.0000000
B2   B   0.333539585305739   0.952481781226355   0.111034353148204   1.0000000
B2   B   0.332840104179834   0.093410776189266   0.111101225495997   1.0000000
B2   B   0.327735716294599   0.231374947515708   0.111011398679611   1.0000000
B2   B   0.319601704093561   0.370114968359439   0.110891447395087   1.0000000
B2   B   0.318424661697002   0.519401290068896   0.111007579379708   1.0000000
B2   B   0.324109335682431   0.667191519003040   0.111203018094531   1.0000000
B2   B   0.332070576917779   0.810676648371466   0.111085157577171   1.0000000
B2   B   0.475749939122626   0.953294433651953   0.110973591797140   1.0000000
B2   B   0.475943252346872   0.093580007319485   0.111044080613798   1.0000000
B2   B   0.475135298692894   0.232477027434510   0.111003659906617   1.0000000
B2   B   0.464623037267943   0.359391901629571   0.110948624126040   1.0000000
B2   B   0.442698610462252   0.511900347477882   0.110989642325888   1.0000000
B2   B   0.457348237792858   0.676178499942080   0.111132386601557   1.0000000
B2   B   0.474507550360187   0.813633259577646   0.111100942914213   1.0000000
B2   B   0.619234556830186   0.953017828501477   0.111025348725983   1.0000000
B2   B   0.618807005285784   0.094717351962164   0.111008917082719   1.0000000
B2   B   0.619175242242090   0.236844291686389   0.110975390917420   1.0000000
B2   B   0.621453928900269   0.380305234078249   0.110942665528014   1.0000000
B2   B   0.646411060177239   0.538724263509228   0.111170581413508   1.0000000
B2   B   0.651141469789093   0.681005827198463   0.111227634593065   1.0000000
B2   B   0.622618266768527   0.812161097098912   0.111125280806776   1.0000000
B2   B   0.763980714222525   0.953917053235128   0.110968501009770   1.0000000
B2   B   0.761378214481969   0.094840105797469   0.111101631018093   1.0000000
B2   B   0.761196992391020   0.237088629454662   0.111035019924630   1.0000000
B2   B   0.763085013652207   0.380319921448609   0.110963872252375   1.0000000
B2   B   0.770665732148113   0.525655990555818   0.110976969855544   1.0000000
B2   B   0.782915133825595   0.676422247162406   0.111018466611693   1.0000000
B2   B   0.773819354304478   0.817844973412754   0.110968314852059   1.0000000
N2   N   0.957663510841337   0.908701026955774   0.110927629060484   1.0000000
N2   N   0.953198464056290   0.048807402594128   0.110966817980536   1.0000000
N2   N   0.949755536542697   0.189011522421358   0.110998387303410   1.0000000
N2   N   0.949426795947717   0.331415814401777   0.110973114136479   1.0000000
N2   N   0.951777236731460   0.474863178841546   0.110969859026217   1.0000000
N2   N   0.956600049569470   0.619326133284423   0.111011522140454   1.0000000
N2   N   0.958471632351087   0.764574320399207   0.110994992999841   1.0000000
N2   N   0.098062890218361   0.906161834224021   0.111067723373498   1.0000000
N2   N   0.095770314032426   0.047810481456003   0.111037706182866   1.0000000
N2   N   0.091086919270209   0.187635233249987   0.110996657351982   1.0000000
N2   N   0.089343521265969   0.330082481179686   0.110956574852761   1.0000000
N2   N   0.090060679766958   0.474021251412460   0.110977597968085   1.0000000
N2   N   0.094061637443543   0.618534447263521   0.111008694414121   1.0000000
N2   N   0.097579711523407   0.762845439421149   0.111045258441297   1.0000000
N2   N   0.239202290540406   0.905293127998909   0.111029264186292   1.0000000
N2   N   0.238473034405598   0.047166971343909   0.111084562099518   1.0000000
N2   N   0.234310414981006   0.186948989460598   0.111039168599913   1.0000000
N2   N   0.227439483322797   0.325692755355625   0.110990241940244   1.0000000
N2   N   0.226889101884136   0.472225467227887   0.111073694547403   1.0000000
N2   N   0.231329168789520   0.617915514497994   0.111173725394720   1.0000000
N2   N   0.237596390826831   0.762381921462269   0.111072154734279   1.0000000
N2   N   0.380942537794739   0.905281271692918   0.110978869731186   1.0000000
N2   N   0.381190567621529   0.047075035242947   0.111057412797472   1.0000000
N2   N   0.379774317820736   0.188091854749196   0.111039240960265   1.0000000
N2   N   0.372746128312110   0.325906706087158   0.110910287976343   1.0000000
N2   N   0.355483352127145   0.462366821595432   0.110805296909140   1.0000000
N2   N   0.367152478633399   0.616849581847514   0.111108798338557   1.0000000
N2   N   0.378686974118181   0.762676056764809   0.111146135040541   1.0000000
N2   N   0.523841271494219   0.906820254721180   0.110983563693596   1.0000000
N2   N   0.523905350156354   0.047356983817782   0.110968154426864   1.0000000
N2   N   0.523979467178549   0.187956267388610   0.111004755113558   1.0000000
N2   N   0.523582413404438   0.327159176007573   0.110929040738811   1.0000000
N2   N   0.523144877226662   0.766784619892286   0.111155736527152   1.0000000
N2   N   0.667820046269850   0.905723637002354   0.111011454138082   1.0000000
N2   N   0.666424606313263   0.047332719681893   0.111037401668753   1.0000000
N2   N   0.666350597627314   0.189619014353671   0.110984899051172   1.0000000
N2   N   0.667414800871818   0.332496666135243   0.110933805486137   1.0000000
N2   N   0.675225543597786   0.476914222697724   0.110962735252109   1.0000000
N2   N   0.692978756013945   0.631380797485993   0.111083796083452   1.0000000
N2   N   0.679371598756840   0.771581454092781   0.111095513152366   1.0000000
N2   N   0.815453469860419   0.910198600620190   0.110873261796651   1.0000000
N2   N   0.809332554904850   0.047823360651123   0.111029851143364   1.0000000
N2   N   0.808103704858944   0.189381594668994   0.111081665594194   1.0000000
N2   N   0.808825359167186   0.332010319363268   0.110977341638103   1.0000000
N2   N   0.813262546228532   0.475524129741610   0.110968209422333   1.0000000
N2   N   0.820822867785123   0.621347119899079   0.110966733446835   1.0000000
N2   N   0.821471959464857   0.770010987534324   0.110952889945132   1.0000000
Se2   Se   0.525286902454649   0.480435101010791   0.110962079580117   1.0000000


