data_1
_audit_creation_method   'vasp2cif'
_cell_length_a    14.93631414619966
_cell_length_b    14.936314146199727
_cell_length_c    13.341276283792837
_cell_angle_alpha    90.0
_cell_angle_beta    90.0
_cell_angle_gamma    119.99999999999984

_symmetry_space_group_name_H-M    'P 1'
loop_
_atom_site_label
_atom_site_type_symbol
_atom_site_fract_x
_atom_site_fract_y
_atom_site_fract_z
_atom_site_occupancy
Pb2   Pb   0.511962142147302   0.422647737740315   0.375000000000000   1.0000000
N2   N   0.111035821969293   0.055523544983594   0.124929878930097   1.0000000
N2   N   0.611444318706832   0.556046429914490   0.122855196055775   1.0000000
N2   N   0.444514023617355   0.055588634675032   0.124933852524962   1.0000000
N2   N   0.944472632734153   0.555544865979270   0.124854499027425   1.0000000
N2   N   0.777843625617824   0.055588479475580   0.124792391124557   1.0000000
N2   N   0.111143383804355   0.722238358568841   0.625147346020090   1.0000000
N2   N   0.444514023617355   0.722258722275659   0.625066147475038   1.0000000
N2   N   0.277522909865026   0.222076642969274   0.626060803426497   1.0000000
N2   N   0.777898349871990   0.722431812629024   0.625795792779973   1.0000000
N2   N   0.611232137463142   0.222142774378090   0.625804813117004   1.0000000
N2   N   0.944429954828794   0.222189957406717   0.625154776943543   1.0000000
N2   N   0.277830027124550   0.722239417471350   0.124890734476309   1.0000000
N2   N   0.110961474297347   0.222147403815338   0.124884849769170   1.0000000
N2   N   0.444502960877889   0.222259175126275   0.124269244257510   1.0000000
N2   N   0.611232137463142   0.722422696418380   0.124195186882996   1.0000000
N2   N   0.944472632734153   0.722261100088218   0.124854499027425   1.0000000
N2   N   0.777862982174905   0.222163857774704   0.124837363483569   1.0000000
N2   N   0.111131967536814   0.888918519554526   0.625143639324961   1.0000000
N2   N   0.444516208726227   0.888924771029778   0.625160886363912   1.0000000
N2   N   0.277522909865026   0.388779600229080   0.626060803426497   1.0000000
N2   N   0.611444318706832   0.388731222125671   0.627144803944225   1.0000000
N2   N   0.777862982174905   0.889032457733529   0.625162636516431   1.0000000
N2   N   0.944474050867030   0.388852952353442   0.625077000056784   1.0000000
N2   N   0.111035821969293   0.388845610319028   0.124929878930097   1.0000000
N2   N   0.277830027124550   0.888923942986529   0.124890734476309   1.0000000
N2   N   0.611195489290477   0.888975096113653   0.124844811343883   1.0000000
N2   N   0.443787933223943   0.388560633278636   0.122671314073901   1.0000000
N2   N   0.944474050867030   0.888954431846916   0.124922999943216   1.0000000
N2   N   0.777898349871990   0.388799870576295   0.124204207220027   1.0000000
N2   N   0.277800970255257   0.555548034619424   0.625068153212149   1.0000000
N2   N   0.111035821969293   0.055523544983594   0.625070121069902   1.0000000
N2   N   0.611444318706832   0.556046429914490   0.627144803944225   1.0000000
N2   N   0.444514023617355   0.055588634675032   0.625066147475038   1.0000000
N2   N   0.944472632734153   0.555544865979270   0.625145500972576   1.0000000
N2   N   0.111131967536814   0.555546781315617   0.124856360675038   1.0000000
N2   N   0.777843625617824   0.055588479475580   0.625207608875443   1.0000000
N2   N   0.277800970255257   0.055586268969169   0.124931846787851   1.0000000
N2   N   0.444502960877889   0.555577119084949   0.124269244257510   1.0000000
N2   N   0.777847557547714   0.555590445440524   0.124250040076125   1.0000000
N2   N   0.611195489290477   0.055553726510152   0.124844811343883   1.0000000
N2   N   0.444502960877889   0.555577119084949   0.625730755742489   1.0000000
N2   N   0.944429954828794   0.055573330755413   0.124845223056457   1.0000000
N2   N   0.277830027124550   0.722239417471350   0.625109265523692   1.0000000
N2   N   0.110961474297347   0.222147403815338   0.625115150230830   1.0000000
N2   N   0.444502960877889   0.222259175126275   0.625730755742489   1.0000000
N2   N   0.611232137463142   0.722422696418380   0.625804813117004   1.0000000
N2   N   0.944472632734153   0.722261100088218   0.625145500972576   1.0000000
N2   N   0.777862982174905   0.222163857774704   0.625162636516431   1.0000000
N2   N   0.111143383804355   0.722238358568841   0.124852653979911   1.0000000
N2   N   0.444514023617355   0.722258722275659   0.124933852524962   1.0000000
N2   N   0.277522909865026   0.222076642969274   0.123939196573503   1.0000000
N2   N   0.777898349871990   0.722431812629024   0.124204207220027   1.0000000
N2   N   0.611232137463142   0.222142774378090   0.124195186882996   1.0000000
N2   N   0.944429954828794   0.222189957406717   0.124845223056457   1.0000000
N2   N   0.111035821969293   0.388845610319028   0.625070121069902   1.0000000
N2   N   0.277830027124550   0.888923942986529   0.625109265523692   1.0000000
N2   N   0.611195489290477   0.888975096113653   0.625155188656117   1.0000000
N2   N   0.443787933223943   0.388560633278636   0.627328685926100   1.0000000
N2   N   0.944474050867030   0.888954431846916   0.625077000056784   1.0000000
N2   N   0.111131967536814   0.888918519554526   0.124856360675038   1.0000000
N2   N   0.777898349871990   0.388799870576295   0.625795792779973   1.0000000
N2   N   0.444516208726227   0.888924771029778   0.124839113636088   1.0000000
N2   N   0.277522909865026   0.388779600229080   0.123939196573503   1.0000000
N2   N   0.277800970255257   0.555548034619424   0.124931846787851   1.0000000
N2   N   0.611444318706832   0.388731222125671   0.122855196055775   1.0000000
N2   N   0.777862982174905   0.889032457733529   0.124837363483569   1.0000000
N2   N   0.944474050867030   0.388852952353442   0.124922999943216   1.0000000
N2   N   0.111131967536814   0.555546781315617   0.625143639324961   1.0000000
N2   N   0.277800970255257   0.055586268969169   0.625068153212149   1.0000000
N2   N   0.777847557547714   0.555590445440524   0.625749959923875   1.0000000
N2   N   0.611195489290477   0.055553726510152   0.625155188656117   1.0000000
N2   N   0.944429954828794   0.055573330755413   0.625154776943543   1.0000000
N2   N   0.057002090611735   0.111965492642592   0.375000000000000   1.0000000
N2   N   0.554080364434760   0.626535620207650   0.375000000000000   1.0000000
N2   N   0.385208513452186   0.101022976113242   0.375000000000000   1.0000000
N2   N   0.884554656809262   0.608943995071302   0.375000000000000   1.0000000
N2   N   0.723263694017877   0.110065999974023   0.375000000000000   1.0000000
N2   N   0.055583373707362   0.777788310153726   0.875000000000000   1.0000000
N2   N   0.388874959669849   0.777784905723430   0.875000000000000   1.0000000
N2   N   0.222237409309579   0.277785371321457   0.875000000000000   1.0000000
N2   N   0.722213619464753   0.777754937300917   0.875000000000000   1.0000000
N2   N   0.555519772690414   0.277747212284468   0.875000000000000   1.0000000
N2   N   0.888890049611722   0.277790589514960   0.875000000000000   1.0000000
N2   N   0.218233044336003   0.775783188834669   0.375000000000000   1.0000000
N2   N   0.057002090611735   0.278369931302479   0.375000000000000   1.0000000
N2   N   0.385321588247024   0.262502468078849   0.375000000000000   1.0000000
N2   N   0.554220901303850   0.784336523875976   0.375000000000000   1.0000000
N2   N   0.888639564964903   0.779003772608248   0.375000000000000   1.0000000
N2   N   0.723276370969240   0.274118490408978   0.375000000000000   1.0000000
N2   N   0.055558915137854   0.944437050276042   0.875000000000000   1.0000000
N2   N   0.388874959669849   0.944423387279754   0.875000000000000   1.0000000
N2   N   0.222218093094884   0.444460762665301   0.875000000000000   1.0000000
N2   N   0.555548228973493   0.444440781153411   0.875000000000000   1.0000000
N2   N   0.722213601852938   0.944432558833585   0.875000000000000   1.0000000
N2   N   0.888910551958384   0.444468106356106   0.875000000000000   1.0000000
N2   N   0.054318548246558   0.444354673514728   0.375000000000000   1.0000000
N2   N   0.218471166590703   0.940312492284778   0.375000000000000   1.0000000
N2   N   0.554397977887113   0.943865655610222   0.375000000000000   1.0000000
N2   N   0.385321588247024   0.456152453501510   0.375000000000000   1.0000000
N2   N   0.890239111679784   0.946317069692345   0.375000000000000   1.0000000
N2   N   0.722515442418451   0.440115333625850   0.375000000000000   1.0000000
N2   N   0.222211226578661   0.611123987449548   0.875000000000000   1.0000000
N2   N   0.055564071627793   0.111111256641087   0.875000000000000   1.0000000
N2   N   0.555519772690414   0.611105893739282   0.875000000000000   1.0000000
N2   N   0.388860240089399   0.111063069822756   0.875000000000000   1.0000000
N2   N   0.888954814196187   0.611144073764764   0.875000000000000   1.0000000
N2   N   0.051878125484329   0.609792626568532   0.375000000000000   1.0000000
N2   N   0.722213601852938   0.111114376352689   0.875000000000000   1.0000000
N2   N   0.219865632182609   0.107117479698947   0.375000000000000   1.0000000
N2   N   0.385208513452186   0.617518870672288   0.375000000000000   1.0000000
N2   N   0.722515442418451   0.615733442125937   0.375000000000000   1.0000000
N2   N   0.554220901303850   0.103217710761210   0.375000000000000   1.0000000
N2   N   0.388860240089399   0.611130503599985   0.875000000000000   1.0000000
N2   N   0.890623805655263   0.111978569494302   0.375000000000000   1.0000000
N2   N   0.222225296192024   0.777779314762680   0.875000000000000   1.0000000
N2   N   0.055564071627793   0.277786148320041   0.875000000000000   1.0000000
N2   N   0.388885172816174   0.277736935130819   0.875000000000000   1.0000000
N2   N   0.555533760356788   0.777770049444354   0.875000000000000   1.0000000
N2   N   0.888910551958384   0.777775778935613   0.875000000000000   1.0000000
N2   N   0.722213619464753   0.277792015497172   0.875000000000000   1.0000000
N2   N   0.051878125484329   0.775418832249131   0.375000000000000   1.0000000
N2   N   0.385603811052554   0.778810804433158   0.375000000000000   1.0000000
N2   N   0.224823835930083   0.279078584631709   0.375000000000000   1.0000000
N2   N   0.723276370969240   0.782491213893598   0.375000000000000   1.0000000
N2   N   0.554080364434760   0.260878077560445   0.375000000000000   1.0000000
N2   N   0.890239111679784   0.277255375320776   0.375000000000000   1.0000000
N2   N   0.055558915137854   0.444455198195140   0.875000000000000   1.0000000
N2   N   0.222211226578661   0.944420572462447   0.875000000000000   1.0000000
N2   N   0.555542699220100   0.944438016276715   0.875000000000000   1.0000000
N2   N   0.388885172816174   0.444481571018691   0.875000000000000   1.0000000
N2   N   0.888890049611722   0.944432793430097   0.875000000000000   1.0000000
N2   N   0.054318548246558   0.943297208065159   0.375000000000000   1.0000000
N2   N   0.722264562669435   0.444485796080358   0.875000000000000   1.0000000
N2   N   0.385603811052554   0.940126339952733   0.375000000000000   1.0000000
N2   N   0.219865632182609   0.446081485816998   0.375000000000000   1.0000000
N2   N   0.218471166590703   0.611492007639260   0.375000000000000   1.0000000
N2   N   0.723263694017877   0.946531027377191   0.375000000000000   1.0000000
N2   N   0.888639564964903   0.442969125689991   0.375000000000000   1.0000000
N2   N   0.055583373707362   0.611128396886972   0.875000000000000   1.0000000
N2   N   0.222218093094884   0.111090663762920   0.875000000000000   1.0000000
N2   N   0.722264562669435   0.611112099922413   0.875000000000000   1.0000000
N2   N   0.555533760356788   0.111097044245770   0.875000000000000   1.0000000
N2   N   0.888891998901570   0.111112666117456   0.875000000000000   1.0000000
B2   B   0.110693640372535   0.054421912942739   0.375000000000000   1.0000000
B2   B   0.612714398145200   0.576784810779756   0.375000000000000   1.0000000
B2   B   0.442645677473381   0.049643129932538   0.375000000000000   1.0000000
B2   B   0.940809804388459   0.553948122491132   0.375000000000000   1.0000000
B2   B   0.779699426576763   0.056516379955049   0.375000000000000   1.0000000
B2   B   0.111108383537182   0.722220858435255   0.875000000000000   1.0000000
B2   B   0.444422508140330   0.722139305515350   0.875000000000000   1.0000000
B2   B   0.277946538227558   0.222328177254293   0.875000000000000   1.0000000
B2   B   0.777677914887054   0.722053233917994   0.875000000000000   1.0000000
B2   B   0.611026259800238   0.222324023776631   0.875000000000000   1.0000000
B2   B   0.944475360077491   0.222259710705616   0.875000000000000   1.0000000
B2   B   0.274610720678156   0.721834340275824   0.375000000000000   1.0000000
B2   B   0.114717441790810   0.224025387562069   0.375000000000000   1.0000000
B2   B   0.440846256160240   0.210964468358709   0.375000000000000   1.0000000
B2   B   0.611429664802991   0.732392583583487   0.375000000000000   1.0000000
B2   B   0.940809804388459   0.720195015230662   0.375000000000000   1.0000000
B2   B   0.779351077607433   0.220854292127695   0.375000000000000   1.0000000
B2   B   0.111129910762807   0.888893584335688   0.875000000000000   1.0000000
B2   B   0.444422508360421   0.888877920846875   0.875000000000000   1.0000000
B2   B   0.277946538227558   0.388951694306593   0.875000000000000   1.0000000
B2   B   0.611012310881231   0.388961726288351   0.875000000000000   1.0000000
B2   B   0.777720153877748   0.888771591682635   0.875000000000000   1.0000000
B2   B   0.944429528597226   0.388932213926145   0.875000000000000   1.0000000
B2   B   0.110693640372535   0.389605060763125   0.375000000000000   1.0000000
B2   B   0.274610720678156   0.886109713735659   0.375000000000000   1.0000000
B2   B   0.611771886449258   0.892311479958250   0.375000000000000   1.0000000
B2   B   0.944238891446422   0.889404121945424   0.375000000000000   1.0000000
B2   B   0.778132489399212   0.386101796977686   0.375000000000000   1.0000000
B2   B   0.277840032188037   0.555551500381864   0.875000000000000   1.0000000
B2   B   0.111194866471325   0.055598165681290   0.875000000000000   1.0000000
B2   B   0.611012310881231   0.555383917926208   0.875000000000000   1.0000000
B2   B   0.444422508140330   0.055616535958315   0.875000000000000   1.0000000
B2   B   0.944407363639617   0.555572069589480   0.875000000000000   1.0000000
B2   B   0.108094382143068   0.555113123462652   0.375000000000000   1.0000000
B2   B   0.777749963982827   0.055541648658082   0.875000000000000   1.0000000
B2   B   0.274896345893378   0.051148799108760   0.375000000000000   1.0000000
B2   B   0.440846256160240   0.563215121134866   0.375000000000000   1.0000000
B2   B   0.771889779879863   0.552611556606599   0.375000000000000   1.0000000
B2   B   0.611771886449258   0.052793739824338   0.375000000000000   1.0000000
B2   B   0.444477840436122   0.555478937918450   0.875000000000000   1.0000000
B2   B   0.946596505607994   0.057122745481823   0.375000000000000   1.0000000
B2   B   0.277787720172723   0.722209332660765   0.875000000000000   1.0000000
B2   B   0.111248405375283   0.222290869354306   0.875000000000000   1.0000000
B2   B   0.444477840436122   0.222332235851007   0.875000000000000   1.0000000
B2   B   0.611026259800238   0.722035569356937   0.875000000000000   1.0000000
B2   B   0.944407363639617   0.722168627383472   0.875000000000000   1.0000000
B2   B   0.777720153877748   0.222281895528441   0.875000000000000   1.0000000
B2   B   0.107415253135075   0.720374293234202   0.375000000000000   1.0000000
B2   B   0.442645677473381   0.726335880874179   0.375000000000000   1.0000000
B2   B   0.279571232146501   0.220011572801511   0.375000000000000   1.0000000
B2   B   0.778132489399212   0.725364025754854   0.375000000000000   1.0000000
B2   B   0.611429664802991   0.212370414552832   0.375000000000000   1.0000000
B2   B   0.946596505607994   0.222807093459507   0.375000000000000   1.0000000
B2   B   0.111194866471325   0.388930034123364   0.875000000000000   1.0000000
B2   B   0.277787720172723   0.888911720845286   0.875000000000000   1.0000000
B2   B   0.611060244456036   0.888810848284176   0.875000000000000   1.0000000
B2   B   0.444573443024634   0.388953388178982   0.875000000000000   1.0000000
B2   B   0.944429528597226   0.888830648004409   0.875000000000000   1.0000000
B2   B   0.108094382143068   0.886314592013745   0.375000000000000   1.0000000
B2   B   0.777677914887054   0.388958014302389   0.875000000000000   1.0000000
B2   B   0.442857148575621   0.888095240954474   0.375000000000000   1.0000000
B2   B   0.279571232146501   0.392892992678319   0.375000000000000   1.0000000
B2   B   0.274896345893378   0.557080880117952   0.375000000000000   1.0000000
B2   B   0.612714398145200   0.369262920698774   0.375000000000000   1.0000000
B2   B   0.779351077607433   0.891830118813067   0.375000000000000   1.0000000
B2   B   0.944238891446422   0.388168102834326   0.375000000000000   1.0000000
B2   B   0.111129910762807   0.555569659760448   0.875000000000000   1.0000000
B2   B   0.277840032188037   0.055621865139508   0.875000000000000   1.0000000
B2   B   0.777680950942970   0.555507142138152   0.875000000000000   1.0000000
B2   B   0.611060244456036   0.055582729505188   0.875000000000000   1.0000000
B2   B   0.944475360077491   0.055548982705211   0.875000000000000   1.0000000
B2   B   0.055619216909994   0.111192186760629   0.125302664651439   1.0000000
B2   B   0.555760220612398   0.610861950479193   0.124639059912111   1.0000000
B2   B   0.389136343055683   0.111600452220450   0.125379423797493   1.0000000
B2   B   0.888502114993729   0.610917724163535   0.125096027116212   1.0000000
B2   B   0.722267510952775   0.111146401614066   0.125138399350284   1.0000000
B2   B   0.055471236765651   0.777775335662165   0.624865743939918   1.0000000
B2   B   0.389041532014362   0.777730951162560   0.624788556061143   1.0000000
B2   B   0.222349614278764   0.277841473806050   0.624952224479370   1.0000000
B2   B   0.722165535287734   0.777706707560647   0.625103956840685   1.0000000
B2   B   0.555760220612398   0.278231603466541   0.625360940087889   1.0000000
B2   B   0.888880035266684   0.277743312289225   0.624817607835214   1.0000000
B2   B   0.222298190278935   0.777815761806136   0.125113563701569   1.0000000
B2   B   0.055619216909994   0.277760363482701   0.125302664651439   1.0000000
B2   B   0.388964540620678   0.278147469950248   0.124774834932285   1.0000000
B2   B   0.555670208627143   0.777680021446797   0.125103978103163   1.0000000
B2   B   0.888718932487908   0.777719439115528   0.125028699228249   1.0000000
B2   B   0.722165535287734   0.277792161060422   0.124896043159316   1.0000000
B2   B   0.055576298563643   0.944542967394484   0.624749229729767   1.0000000
B2   B   0.389041532014362   0.944643914185137   0.624788556061143   1.0000000
B2   B   0.222357189689278   0.444316871002427   0.624758061452092   1.0000000
B2   B   0.555366700794469   0.444350017063899   0.618061175593639   1.0000000
B2   B   0.722267510952775   0.944454442672045   0.624861600649716   1.0000000
B2   B   0.888718932487908   0.444332826705715   0.624971300771751   1.0000000
B2   B   0.055576298563643   0.444366664502488   0.125250770270233   1.0000000
B2   B   0.222356730779002   0.944682176434620   0.125243239373216   1.0000000
B2   B   0.555662018767417   0.944497676050372   0.125159977384470   1.0000000
B2   B   0.388964540620678   0.444150404003766   0.124774834932285   1.0000000
B2   B   0.888880035266684   0.944470056310795   0.125182392164786   1.0000000
B2   B   0.721727083586207   0.444160628576544   0.124232440402124   1.0000000
B2   B   0.222356730779002   0.611007887677717   0.624756760626784   1.0000000
B2   B   0.055619216909994   0.111192186760629   0.624697335348560   1.0000000
B2   B   0.555760220612398   0.610861950479193   0.625360940087889   1.0000000
B2   B   0.389136343055683   0.111600452220450   0.624620576202506   1.0000000
B2   B   0.888502114993729   0.610917724163535   0.624903972883788   1.0000000
B2   B   0.055471236765651   0.611029234436822   0.125134256060082   1.0000000
B2   B   0.722267510952775   0.111146401614066   0.624861600649716   1.0000000
B2   B   0.222357189689278   0.111373652020187   0.125241938547908   1.0000000
B2   B   0.389136343055683   0.610869224168576   0.125379423797493   1.0000000
B2   B   0.721727083586207   0.610899788342999   0.124232440402124   1.0000000
B2   B   0.555670208627143   0.111323520513682   0.125103978103163   1.0000000
B2   B   0.389136343055683   0.610869224168576   0.624620576202506   1.0000000
B2   B   0.888923245403743   0.111128289368543   0.125113047697166   1.0000000
B2   B   0.222298190278935   0.777815761806136   0.624886436298431   1.0000000
B2   B   0.055619216909994   0.277760363482701   0.624697335348560   1.0000000
B2   B   0.388964540620678   0.278147469950248   0.625225165067715   1.0000000
B2   B   0.555670208627143   0.777680021446797   0.624896021896837   1.0000000
B2   B   0.888718932487908   0.777719439115528   0.624971300771751   1.0000000
B2   B   0.722165535287734   0.277792161060422   0.625103956840685   1.0000000
B2   B   0.055471236765651   0.777775335662165   0.125134256060082   1.0000000
B2   B   0.389041532014362   0.777730951162560   0.125211443938856   1.0000000
B2   B   0.222349614278764   0.277841473806050   0.125047775520630   1.0000000
B2   B   0.722165535287734   0.777706707560647   0.124896043159316   1.0000000
B2   B   0.555760220612398   0.278231603466541   0.124639059912111   1.0000000
B2   B   0.888880035266684   0.277743312289225   0.125182392164786   1.0000000
B2   B   0.055576298563643   0.444366664502488   0.624749229729767   1.0000000
B2   B   0.222356730779002   0.944682176434620   0.624756760626784   1.0000000
B2   B   0.555662018767417   0.944497676050372   0.624840022615531   1.0000000
B2   B   0.388964540620678   0.444150404003766   0.625225165067715   1.0000000
B2   B   0.888880035266684   0.944470056310795   0.624817607835214   1.0000000
B2   B   0.055576298563643   0.944542967394484   0.125250770270233   1.0000000
B2   B   0.721727083586207   0.444160628576544   0.625767559597876   1.0000000
B2   B   0.389041532014362   0.944643914185137   0.125211443938856   1.0000000
B2   B   0.222357189689278   0.444316871002427   0.125241938547908   1.0000000
B2   B   0.222356730779002   0.611007887677717   0.125243239373216   1.0000000
B2   B   0.555366700794469   0.444350017063899   0.131938824406360   1.0000000
B2   B   0.722267510952775   0.944454442672045   0.125138399350284   1.0000000
B2   B   0.888718932487908   0.444332826705715   0.125028699228249   1.0000000
B2   B   0.055471236765651   0.611029234436822   0.624865743939918   1.0000000
B2   B   0.222357189689278   0.111373652020187   0.624758061452092   1.0000000
B2   B   0.721727083586207   0.610899788342999   0.625767559597876   1.0000000
B2   B   0.555670208627143   0.111323520513682   0.624896021896837   1.0000000
B2   B   0.888923245403743   0.111128289368543   0.624886952302835   1.0000000


