data_1
_audit_creation_method   'vasp2cif'
_cell_length_a    14.93631414619966
_cell_length_b    14.936314146199727
_cell_length_c    13.341276283792837
_cell_angle_alpha    90.0
_cell_angle_beta    90.0
_cell_angle_gamma    119.99999999999984

_symmetry_space_group_name_H-M    'P 1'
loop_
_atom_site_label
_atom_site_type_symbol
_atom_site_fract_x
_atom_site_fract_y
_atom_site_fract_z
_atom_site_occupancy
C2   C   0.388982474612036   0.441186889360033   0.375000000000000   1.0000000
C2   C   0.442483226767604   0.384966453535208   0.375000000000000   1.0000000
C2   C   0.552204414747998   0.441186889360033   0.375000000000000   1.0000000
N2   N   0.111129207256694   0.055565254639242   0.125170978618647   1.0000000
N2   N   0.611117624895562   0.555568066729109   0.125223621010453   1.0000000
N2   N   0.444436047382548   0.055565254639242   0.125170978618647   1.0000000
N2   N   0.944452038905544   0.555560556299660   0.125116029161875   1.0000000
N2   N   0.777778808283881   0.055557616567762   0.125091827012877   1.0000000
N2   N   0.111109143970643   0.722218287941278   0.624901117091248   1.0000000
N2   N   0.444433936454416   0.722223455810445   0.624871118670370   1.0000000
N2   N   0.277819051987163   0.222274312879042   0.624403885981620   1.0000000
N2   N   0.777789519356029   0.722223455810445   0.624871118670370   1.0000000
N2   N   0.611115074329980   0.222234694714509   0.624840738549260   1.0000000
N2   N   0.944450031198795   0.222231240843969   0.624901221682723   1.0000000
N2   N   0.277765394631052   0.722220465650266   0.125117239648742   1.0000000
N2   N   0.111119620384536   0.222234694714509   0.125159261450740   1.0000000
N2   N   0.444455260891878   0.222274312879042   0.125596114018380   1.0000000
N2   N   0.611108384907135   0.722216769814263   0.125155246100994   1.0000000
N2   N   0.944455071019214   0.722220465650266   0.125117239648742   1.0000000
N2   N   0.777781209645174   0.222231240843969   0.125098778317278   1.0000000
N2   N   0.111121112363280   0.888892491508162   0.624869365873537   1.0000000
N2   N   0.444430966777327   0.888890728270522   0.624896121315633   1.0000000
N2   N   0.277772464309608   0.388905476773369   0.624724007095170   1.0000000
N2   N   0.611133012463769   0.388905476773369   0.624724007095170   1.0000000
N2   N   0.777786183731882   0.888887029640331   0.624898358319819   1.0000000
N2   N   0.944450802493425   0.388901604986849   0.624904638921993   1.0000000
N2   N   0.111107987003448   0.388902047219640   0.125137936599478   1.0000000
N2   N   0.277771379144888   0.888892491508162   0.125130634126462   1.0000000
N2   N   0.611100845908456   0.888887029640331   0.125101641680181   1.0000000
N2   N   0.444457448651435   0.388914897302869   0.125285367908768   1.0000000
N2   N   0.944459761493195   0.888890728270522   0.125103878684367   1.0000000
N2   N   0.777794060216198   0.388902047219640   0.125137936599478   1.0000000
N2   N   0.277773812727414   0.555559398593533   0.624786170570793   1.0000000
N2   N   0.111129207256694   0.055565254639242   0.624829021381353   1.0000000
N2   N   0.611117624895562   0.555568066729109   0.624776378989547   1.0000000
N2   N   0.444436047382548   0.055565254639242   0.624829021381353   1.0000000
N2   N   0.944452038905544   0.555560556299660   0.624883970838125   1.0000000
N2   N   0.111108517394116   0.555560556299660   0.125116029161875   1.0000000
N2   N   0.777778808283881   0.055557616567762   0.624908172987123   1.0000000
N2   N   0.277793891855291   0.055587783710582   0.125291283858434   1.0000000
N2   N   0.444450441833547   0.555568066729109   0.125223621010453   1.0000000
N2   N   0.777785585866119   0.555559398593533   0.125213829429207   1.0000000
N2   N   0.611099657517175   0.055560158588221   0.125105481099662   1.0000000
N2   N   0.444450441833547   0.555568066729109   0.624776378989547   1.0000000
N2   N   0.944460501071046   0.055560158588221   0.125105481099662   1.0000000
N2   N   0.277765394631052   0.722220465650266   0.624882760351258   1.0000000
N2   N   0.111119620384536   0.222234694714509   0.624840738549260   1.0000000
N2   N   0.444455260891878   0.222274312879042   0.624403885981620   1.0000000
N2   N   0.611108384907135   0.722216769814263   0.624844753899006   1.0000000
N2   N   0.944455071019214   0.722220465650266   0.624882760351258   1.0000000
N2   N   0.777781209645174   0.222231240843969   0.624901221682723   1.0000000
N2   N   0.111109143970643   0.722218287941278   0.125098882908752   1.0000000
N2   N   0.444433936454416   0.722223455810445   0.125128881329629   1.0000000
N2   N   0.277819051987163   0.222274312879042   0.125596114018380   1.0000000
N2   N   0.777789519356029   0.722223455810445   0.125128881329629   1.0000000
N2   N   0.611115074329980   0.222234694714509   0.125159261450740   1.0000000
N2   N   0.944450031198795   0.222231240843969   0.125098778317278   1.0000000
N2   N   0.111107987003448   0.388902047219640   0.624862063400522   1.0000000
N2   N   0.277771379144888   0.888892491508162   0.624869365873537   1.0000000
N2   N   0.611100845908456   0.888887029640331   0.624898358319819   1.0000000
N2   N   0.444457448651435   0.388914897302869   0.624714632091232   1.0000000
N2   N   0.944459761493195   0.888890728270522   0.624896121315633   1.0000000
N2   N   0.111121112363280   0.888892491508162   0.125130634126462   1.0000000
N2   N   0.777794060216198   0.388902047219640   0.624862063400522   1.0000000
N2   N   0.444430966777327   0.888890728270522   0.125103878684367   1.0000000
N2   N   0.277772464309608   0.388905476773369   0.125275992904830   1.0000000
N2   N   0.277773812727414   0.555559398593533   0.125213829429207   1.0000000
N2   N   0.611133012463769   0.388905476773369   0.125275992904830   1.0000000
N2   N   0.777786183731882   0.888887029640331   0.125101641680181   1.0000000
N2   N   0.944450802493425   0.388901604986849   0.125095361078007   1.0000000
N2   N   0.111108517394116   0.555560556299660   0.624883970838125   1.0000000
N2   N   0.277793891855291   0.055587783710582   0.624708716141566   1.0000000
N2   N   0.777785585866119   0.555559398593533   0.624786170570793   1.0000000
N2   N   0.611099657517175   0.055560158588221   0.624894518900338   1.0000000
N2   N   0.944460501071046   0.055560158588221   0.624894518900338   1.0000000
N2   N   0.054492719172074   0.110103071933153   0.375000000000000   1.0000000
N2   N   0.557664173984394   0.615328347968788   0.375000000000000   1.0000000
N2   N   0.389290319860212   0.111970657609519   0.375000000000000   1.0000000
N2   N   0.888609282077219   0.611016193973507   0.375000000000000   1.0000000
N2   N   0.722284134944714   0.110914545103567   0.375000000000000   1.0000000
N2   N   0.055554318068861   0.777779818427619   0.875000000000000   1.0000000
N2   N   0.388892794001786   0.777778017346627   0.875000000000000   1.0000000
N2   N   0.222219671148510   0.277771032016916   0.875000000000000   1.0000000
N2   N   0.722219904545932   0.777776912773323   0.875000000000000   1.0000000
N2   N   0.555551360868406   0.277771032016916   0.875000000000000   1.0000000
N2   N   0.888887267077288   0.277774534154582   0.875000000000000   1.0000000
N2   N   0.222283850350484   0.777987079811289   0.375000000000000   1.0000000
N2   N   0.054461277045046   0.277267574895678   0.375000000000000   1.0000000
N2   N   0.390323150490526   0.280646300981059   0.375000000000000   1.0000000
N2   N   0.555891185984402   0.779230113874992   0.375000000000000   1.0000000
N2   N   0.889416133926561   0.778291100105935   0.375000000000000   1.0000000
N2   N   0.722806297850631   0.277267574895678   0.375000000000000   1.0000000
N2   N   0.055552313461794   0.944446898339619   0.875000000000000   1.0000000
N2   N   0.388894584877826   0.944446898339619   0.875000000000000   1.0000000
N2   N   0.222221634066096   0.444437915685907   0.875000000000000   1.0000000
N2   N   0.555550815553104   0.444438702489079   0.875000000000000   1.0000000
N2   N   0.722222016640617   0.944444033281235   0.875000000000000   1.0000000
N2   N   0.888885989126147   0.444439405842742   0.875000000000000   1.0000000
N2   N   0.055113307964868   0.444425991847914   0.375000000000000   1.0000000
N2   N   0.222550421290860   0.945100842581721   0.375000000000000   1.0000000
N2   N   0.555510074624177   0.944587893293117   0.375000000000000   1.0000000
N2   N   0.889077818668939   0.944587893293117   0.375000000000000   1.0000000
N2   N   0.723112729865833   0.443645902012641   0.375000000000000   1.0000000
N2   N   0.222222840047994   0.611105567110503   0.875000000000000   1.0000000
N2   N   0.055550809297740   0.111105825155867   0.875000000000000   1.0000000
N2   N   0.555552843154212   0.611105686308424   0.875000000000000   1.0000000
N2   N   0.388891745449052   0.111111387736620   0.875000000000000   1.0000000
N2   N   0.888882727062501   0.611105567110503   0.875000000000000   1.0000000
N2   N   0.055609534627728   0.611219069255455   0.375000000000000   1.0000000
N2   N   0.722219193913274   0.111106673582959   0.875000000000000   1.0000000
N2   N   0.222680337749300   0.111970657609519   0.375000000000000   1.0000000
N2   N   0.389511251191244   0.612088446048648   0.375000000000000   1.0000000
N2   N   0.722577194857397   0.612088446048648   0.375000000000000   1.0000000
N2   N   0.555610352761079   0.110103071933153   0.375000000000000   1.0000000
N2   N   0.388891958876544   0.611105753789562   0.875000000000000   1.0000000
N2   N   0.888630410158845   0.110914545103567   0.375000000000000   1.0000000
N2   N   0.222225500358757   0.777779818427619   0.875000000000000   1.0000000
N2   N   0.055552629990035   0.277771380360549   0.875000000000000   1.0000000
N2   N   0.388886665121135   0.277773330242277   0.875000000000000   1.0000000
N2   N   0.555557008227391   0.777776912773323   0.875000000000000   1.0000000
N2   N   0.888885223344834   0.777778017346627   0.875000000000000   1.0000000
N2   N   0.722218750370515   0.277771380360549   0.875000000000000   1.0000000
N2   N   0.055703229460805   0.777987079811289   0.375000000000000   1.0000000
N2   N   0.388874966179367   0.778291100105935   0.375000000000000   1.0000000
N2   N   0.218767513637255   0.275376160786056   0.375000000000000   1.0000000
N2   N   0.723338927890589   0.779230113874992   0.375000000000000   1.0000000
N2   N   0.556608647148801   0.275376160786056   0.375000000000000   1.0000000
N2   N   0.888817691604950   0.277635383209908   0.375000000000000   1.0000000
N2   N   0.055553416716595   0.444439405842742   0.875000000000000   1.0000000
N2   N   0.222225559165619   0.944451118331238   0.875000000000000   1.0000000
N2   N   0.555556098657532   0.944443941918112   0.875000000000000   1.0000000
N2   N   0.388887886935975   0.444438702489079   0.875000000000000   1.0000000
N2   N   0.888887843260580   0.944443941918112   0.875000000000000   1.0000000
N2   N   0.055894671355531   0.944752823367007   0.375000000000000   1.0000000
N2   N   0.722216281619810   0.444437915685907   0.875000000000000   1.0000000
N2   N   0.388858152011476   0.944752823367007   0.375000000000000   1.0000000
N2   N   0.220533172146808   0.443645902012641   0.375000000000000   1.0000000
N2   N   0.222406911896281   0.611016193973507   0.375000000000000   1.0000000
N2   N   0.722416250677354   0.944832501354708   0.375000000000000   1.0000000
N2   N   0.889312683883046   0.444425991847914   0.375000000000000   1.0000000
N2   N   0.055553050975900   0.611106101951801   0.875000000000000   1.0000000
N2   N   0.222219642287561   0.111111387736620   0.875000000000000   1.0000000
N2   N   0.722213794913011   0.611105753789562   0.875000000000000   1.0000000
N2   N   0.555555015858126   0.111105825155867   0.875000000000000   1.0000000
N2   N   0.888887479669678   0.111106673582959   0.875000000000000   1.0000000
B2   B   0.110466299321060   0.055306934437201   0.375000000000000   1.0000000
B2   B   0.612364351506162   0.559918701519312   0.375000000000000   1.0000000
B2   B   0.444840635116141   0.055306934437201   0.375000000000000   1.0000000
B2   B   0.944528575682509   0.555559092785192   0.375000000000000   1.0000000
B2   B   0.777805182431653   0.055610364863305   0.375000000000000   1.0000000
B2   B   0.111107634575695   0.722215269151384   0.875000000000000   1.0000000
B2   B   0.444455974498431   0.722245620663233   0.875000000000000   1.0000000
B2   B   0.277739772646200   0.222196169389925   0.875000000000000   1.0000000
B2   B   0.777789646164802   0.722245620663233   0.875000000000000   1.0000000
B2   B   0.611138599298575   0.222199557343220   0.875000000000000   1.0000000
B2   B   0.944420861126021   0.222206564130046   0.875000000000000   1.0000000
B2   B   0.277830295663099   0.722415682088417   0.375000000000000   1.0000000
B2   B   0.107845508532471   0.220198972972134   0.375000000000000   1.0000000
B2   B   0.447028135417583   0.221520177858480   0.375000000000000   1.0000000
B2   B   0.613059898700541   0.726119797401074   0.375000000000000   1.0000000
B2   B   0.944585386425319   0.722415682088417   0.375000000000000   1.0000000
B2   B   0.778137255959749   0.221738903171318   0.375000000000000   1.0000000
B2   B   0.111092807437091   0.888873067076567   0.875000000000000   1.0000000
B2   B   0.444457521313658   0.888885326431566   0.875000000000000   1.0000000
B2   B   0.277742496369933   0.388888416434436   0.875000000000000   1.0000000
B2   B   0.611145920064510   0.388888416434436   0.875000000000000   1.0000000
B2   B   0.777778605853926   0.888901151376307   0.875000000000000   1.0000000
B2   B   0.944439793449363   0.388879586898726   0.875000000000000   1.0000000
B2   B   0.109405810980333   0.388334313743931   0.375000000000000   1.0000000
B2   B   0.277854954239307   0.888955751305891   0.375000000000000   1.0000000
B2   B   0.611507393301405   0.889944394029569   0.375000000000000   1.0000000
B2   B   0.944710126740911   0.889249286423571   0.375000000000000   1.0000000
B2   B   0.778928502763606   0.388334313743931   0.375000000000000   1.0000000
B2   B   0.277768603986527   0.555567783644173   0.875000000000000   1.0000000
B2   B   0.111067934709456   0.055527317338684   0.875000000000000   1.0000000
B2   B   0.611139824233254   0.555596059685244   0.875000000000000   1.0000000
B2   B   0.444459382629228   0.055527317338684   0.875000000000000   1.0000000
B2   B   0.944449158529261   0.555551897881609   0.875000000000000   1.0000000
B2   B   0.111030517102683   0.555559092785192   0.375000000000000   1.0000000
B2   B   0.777774867621808   0.055549735243616   0.875000000000000   1.0000000
B2   B   0.277762103578353   0.055524207156706   0.375000000000000   1.0000000
B2   B   0.447554350013150   0.559918701519312   0.375000000000000   1.0000000
B2   B   0.777800461469636   0.555616976268923   0.375000000000000   1.0000000
B2   B   0.611442241767430   0.055037334772295   0.375000000000000   1.0000000
B2   B   0.444456235451991   0.555596059685244   0.875000000000000   1.0000000
B2   B   0.943595093004865   0.055037334772295   0.375000000000000   1.0000000
B2   B   0.277778662959352   0.722223753322959   0.875000000000000   1.0000000
B2   B   0.111060958044651   0.222199557343220   0.875000000000000   1.0000000
B2   B   0.444456396743725   0.222196169389925   0.875000000000000   1.0000000
B2   B   0.611129342042729   0.722258684085451   0.875000000000000   1.0000000
B2   B   0.944445090363608   0.722223753322959   0.875000000000000   1.0000000
B2   B   0.777785703004025   0.222206564130046   0.875000000000000   1.0000000
B2   B   0.111172819982640   0.722345639965273   0.375000000000000   1.0000000
B2   B   0.444760004632317   0.723471910938486   0.375000000000000   1.0000000
B2   B   0.274492042440897   0.221520177858480   0.375000000000000   1.0000000
B2   B   0.778711906306169   0.723471910938486   0.375000000000000   1.0000000
B2   B   0.612353464439670   0.220198972972134   0.375000000000000   1.0000000
B2   B   0.943601647211569   0.221738903171318   0.375000000000000   1.0000000
B2   B   0.111081460477993   0.388880223204676   0.875000000000000   1.0000000
B2   B   0.277780259639483   0.888873067076567   0.875000000000000   1.0000000
B2   B   0.611122545522389   0.888901151376307   0.875000000000000   1.0000000
B2   B   0.444448295275639   0.388896590551279   0.875000000000000   1.0000000
B2   B   0.944427805117909   0.888885326431566   0.875000000000000   1.0000000
B2   B   0.111100797066591   0.888955751305891   0.375000000000000   1.0000000
B2   B   0.777798762726690   0.388880223204676   0.875000000000000   1.0000000
B2   B   0.444539159682660   0.889249286423571   0.375000000000000   1.0000000
B2   B   0.271771498945288   0.385293043109770   0.375000000000000   1.0000000
B2   B   0.277816514799287   0.555616976268923   0.375000000000000   1.0000000
B2   B   0.613521544164489   0.385293043109770   0.375000000000000   1.0000000
B2   B   0.778437000728170   0.889944394029569   0.375000000000000   1.0000000
B2   B   0.944341572121287   0.388683144242573   0.375000000000000   1.0000000
B2   B   0.111102739352349   0.555551897881609   0.875000000000000   1.0000000
B2   B   0.277762444211603   0.055524888423206   0.875000000000000   1.0000000
B2   B   0.777799179657646   0.555567783644173   0.875000000000000   1.0000000
B2   B   0.611127227918009   0.055540755143423   0.875000000000000   1.0000000
B2   B   0.944413527225414   0.055540755143423   0.875000000000000   1.0000000
B2   B   0.055472715913888   0.111065064467320   0.124858585094809   1.0000000
B2   B   0.555614365165457   0.611228730330914   0.124792513123356   1.0000000
B2   B   0.388871419104105   0.110980677888936   0.124886240851541   1.0000000
B2   B   0.888978945456014   0.611148894812482   0.124920521647735   1.0000000
B2   B   0.722242588473525   0.111108572378208   0.124906099048981   1.0000000
B2   B   0.055551674777825   0.777734527162516   0.625089915113284   1.0000000
B2   B   0.388857977821168   0.777791958953184   0.625094093118354   1.0000000
B2   B   0.222079742548626   0.277792168969951   0.625151117264057   1.0000000
B2   B   0.722275544573098   0.777831468375172   0.625117122251606   1.0000000
B2   B   0.555712426421325   0.277792168969951   0.625151117264057   1.0000000
B2   B   0.888898721183458   0.277797442366924   0.625099589568118   1.0000000
B2   B   0.222182852384691   0.777734527162516   0.124910084886716   1.0000000
B2   B   0.055478836092697   0.277792970811168   0.124871912247289   1.0000000
B2   B   0.388899367036458   0.277798734072923   0.124547748866633   1.0000000
B2   B   0.555555923802074   0.777831468375172   0.124882877748395   1.0000000
B2   B   0.888933981132009   0.777791958953184   0.124905906881647   1.0000000
B2   B   0.722314134718471   0.277792970811168   0.124871912247289   1.0000000
B2   B   0.055508050015620   0.944370714406709   0.625110622683885   1.0000000
B2   B   0.388862664391089   0.944370714406709   0.625110622683885   1.0000000
B2   B   0.222121407158512   0.444513782892672   0.625122788484114   1.0000000
B2   B   0.555713525366224   0.444563342730437   0.625305092366816   1.0000000
B2   B   0.722230053410483   0.944460106820966   0.625097893539555   1.0000000
B2   B   0.888957536493906   0.444479649791489   0.625094433973395   1.0000000
B2   B   0.055522113297583   0.444479649791489   0.124905566026605   1.0000000
B2   B   0.222155760006182   0.944311520012363   0.124882912103008   1.0000000
B2   B   0.555549199456078   0.944433238013025   0.124904168265649   1.0000000
B2   B   0.388849817364213   0.444563342730437   0.124694907633184   1.0000000
B2   B   0.888884038556947   0.944433238013025   0.124904168265649   1.0000000
B2   B   0.722392375734161   0.444513782892672   0.124877211515886   1.0000000
B2   B   0.222169949356461   0.611148894812482   0.625079478352265   1.0000000
B2   B   0.055472715913888   0.111065064467320   0.625141414905191   1.0000000
B2   B   0.555614365165457   0.611228730330914   0.625207486876644   1.0000000
B2   B   0.388871419104105   0.110980677888936   0.625113759148459   1.0000000
B2   B   0.888978945456014   0.611148894812482   0.625079478352265   1.0000000
B2   B   0.055560821681942   0.611121643363884   0.124909341151058   1.0000000
B2   B   0.722242588473525   0.111108572378208   0.625093900951019   1.0000000
B2   B   0.222109258784824   0.110980677888936   0.124886240851541   1.0000000
B2   B   0.388849962689264   0.611207711211364   0.124898464172199   1.0000000
B2   B   0.722357748522093   0.611207711211364   0.124898464172199   1.0000000
B2   B   0.555592348553432   0.111065064467320   0.124858585094809   1.0000000
B2   B   0.388849962689264   0.611207711211364   0.625101535827801   1.0000000
B2   B   0.888865983904676   0.111108572378208   0.124906099048981   1.0000000
B2   B   0.222182852384691   0.777734527162516   0.625089915113284   1.0000000
B2   B   0.055478836092697   0.277792970811168   0.625128087752711   1.0000000
B2   B   0.388899367036458   0.277798734072923   0.625452251133367   1.0000000
B2   B   0.555555923802074   0.777831468375172   0.625117122251606   1.0000000
B2   B   0.888933981132009   0.777791958953184   0.625094093118354   1.0000000
B2   B   0.722314134718471   0.277792970811168   0.625128087752711   1.0000000
B2   B   0.055551674777825   0.777734527162516   0.124910084886716   1.0000000
B2   B   0.388857977821168   0.777791958953184   0.124905906881647   1.0000000
B2   B   0.222079742548626   0.277792168969951   0.124848882735943   1.0000000
B2   B   0.722275544573098   0.777831468375172   0.124882877748395   1.0000000
B2   B   0.555712426421325   0.277792168969951   0.124848882735943   1.0000000
B2   B   0.888898721183458   0.277797442366924   0.124900410431882   1.0000000
B2   B   0.055522113297583   0.444479649791489   0.625094433973395   1.0000000
B2   B   0.222155760006182   0.944311520012363   0.625117087896992   1.0000000
B2   B   0.555549199456078   0.944433238013025   0.625095831734351   1.0000000
B2   B   0.388849817364213   0.444563342730437   0.625305092366816   1.0000000
B2   B   0.888884038556947   0.944433238013025   0.625095831734351   1.0000000
B2   B   0.055508050015620   0.944370714406709   0.124889377316116   1.0000000
B2   B   0.722392375734161   0.444513782892672   0.625122788484114   1.0000000
B2   B   0.388862664391089   0.944370714406709   0.124889377316116   1.0000000
B2   B   0.222121407158512   0.444513782892672   0.124877211515886   1.0000000
B2   B   0.222169949356461   0.611148894812482   0.124920521647735   1.0000000
B2   B   0.555713525366224   0.444563342730437   0.124694907633184   1.0000000
B2   B   0.722230053410483   0.944460106820966   0.124902106460445   1.0000000
B2   B   0.888957536493906   0.444479649791489   0.124905566026605   1.0000000
B2   B   0.055560821681942   0.611121643363884   0.625090658848942   1.0000000
B2   B   0.222109258784824   0.110980677888936   0.625113759148459   1.0000000
B2   B   0.722357748522093   0.611207711211364   0.625101535827801   1.0000000
B2   B   0.555592348553432   0.111065064467320   0.625141414905191   1.0000000
B2   B   0.888865983904676   0.111108572378208   0.625093900951019   1.0000000


