data_1
_audit_creation_method   'vasp2cif'
_cell_length_a    17.52789999999977
_cell_length_b    17.52789999999977
_cell_length_c    15.0
_cell_angle_alpha    90.0
_cell_angle_beta    90.0
_cell_angle_gamma    119.99999999999916

_symmetry_space_group_name_H-M    'P 1'
loop_
_atom_site_label
_atom_site_type_symbol
_atom_site_fract_x
_atom_site_fract_y
_atom_site_fract_z
_atom_site_occupancy
B2   B   0.905013289523106   0.951997070977190   0.117709242114759   1.0000000
B2   B   0.905222283431146   0.094920946851164   0.118084257300549   1.0000000
B2   B   0.905325040881475   0.237869474092945   0.117241678973612   1.0000000
B2   B   0.905377034943128   0.380803070008513   0.116232353273082   1.0000000
B2   B   0.905090583379465   0.523645100147270   0.114809177393598   1.0000000
B2   B   0.904715625788367   0.666356137300349   0.114548044275754   1.0000000
B2   B   0.904345749977416   0.808711673728765   0.115670453662208   1.0000000
B2   B   0.047872050197829   0.952270522228517   0.118010164884297   1.0000000
B2   B   0.048138830979844   0.095122181336516   0.117718484152208   1.0000000
B2   B   0.048166590763631   0.238024627190183   0.115688239704693   1.0000000
B2   B   0.048062311245624   0.380989999796953   0.114369159716553   1.0000000
B2   B   0.047878945198211   0.523878865783705   0.114780547953704   1.0000000
B2   B   0.047662512579596   0.666673235887474   0.115839070099964   1.0000000
B2   B   0.047641646271569   0.809434005054227   0.117134320186477   1.0000000
B2   B   0.190716117748590   0.952507822182029   0.117127129104960   1.0000000
B2   B   0.191430593291893   0.095794245099871   0.115660954074254   1.0000000
B2   B   0.190955979503163   0.238098646109509   0.112381999546236   1.0000000
B2   B   0.190605593010665   0.381012448105600   0.107849217485782   1.0000000
B2   B   0.190552554257164   0.524090126622862   0.108586064503339   1.0000000
B2   B   0.190426488998930   0.666884737635657   0.111820222741572   1.0000000
B2   B   0.190491239614057   0.809657924030487   0.115592036493620   1.0000000
B2   B   0.333480985669962   0.952491328154241   0.115823501941372   1.0000000
B2   B   0.333798633889053   0.095441647838105   0.114521232776356   1.0000000
B2   B   0.335131977237383   0.239361155986394   0.110069267841498   1.0000000
B2   B   0.332443296998573   0.380474757070366   0.098644835093497   1.0000000
B2   B   0.332722345435113   0.524467953626653   0.094913964925822   1.0000000
B2   B   0.333051372698853   0.667103956766385   0.103078254081662   1.0000000
B2   B   0.333268961865207   0.809730064314011   0.111809461859917   1.0000000
B2   B   0.476274355106642   0.952277458195319   0.114765132578446   1.0000000
B2   B   0.476507640268736   0.095064873986135   0.114789196824906   1.0000000
B2   B   0.476713746459587   0.237763856433052   0.109850928938421   1.0000000
B2   B   0.479256577624661   0.381474212983569   0.106295248241526   1.0000000
B2   B   0.475684595331987   0.667429732737070   0.094916810859532   1.0000000
B2   B   0.476056456471231   0.809595975185121   0.108584419492611   1.0000000
B2   B   0.619156201508139   0.952086558725938   0.114366366237430   1.0000000
B2   B   0.619354103243297   0.094782968382836   0.116218843584079   1.0000000
B2   B   0.619619109543291   0.237358383442207   0.112875319477945   1.0000000
B2   B   0.620422648237110   0.379739777986514   0.108001976707552   1.0000000
B2   B   0.618689501394262   0.520897937338720   0.106291302603669   1.0000000
B2   B   0.619658456190812   0.667693598543546   0.098638333414010   1.0000000
B2   B   0.619134509621892   0.809542790391496   0.107845928017530   1.0000000
B2   B   0.762119263272472   0.951974839431130   0.115688966544690   1.0000000
B2   B   0.762287214399750   0.094830983655272   0.117245415263305   1.0000000
B2   B   0.762478204966354   0.237686195013007   0.116276544403161   1.0000000
B2   B   0.762804375615125   0.380539465031915   0.112888887752880   1.0000000
B2   B   0.762401776837558   0.523442454984259   0.109862263013524   1.0000000
B2   B   0.760789659852265   0.665013099325488   0.110081838402583   1.0000000
B2   B   0.762033192686214   0.809183215548939   0.112378395080265   1.0000000
N2   N   0.952224125206649   0.904037317303711   0.117669441654951   1.0000000
N2   N   0.952861939601173   0.047276283960588   0.118553097890158   1.0000000
N2   N   0.953029543871691   0.190287130449777   0.117555505175437   1.0000000
N2   N   0.952955973982583   0.333225837942831   0.116615459379063   1.0000000
N2   N   0.952579730057981   0.476067062345798   0.115972360053895   1.0000000
N2   N   0.952105640189040   0.618760225927880   0.115537205171464   1.0000000
N2   N   0.951964880765097   0.761319630160879   0.116173104924352   1.0000000
N2   N   0.095412889265511   0.904736671264284   0.117822780559317   1.0000000
N2   N   0.096103047329391   0.047916556225737   0.117677309955649   1.0000000
N2   N   0.096132680987208   0.190603539342271   0.116006596841081   1.0000000
N2   N   0.095948274792410   0.333448375282183   0.112955810515489   1.0000000
N2   N   0.095671993160668   0.476275608652410   0.113077429896125   1.0000000
N2   N   0.095278161046346   0.619062604823841   0.114572407307693   1.0000000
N2   N   0.095166818910965   0.761853427144759   0.116541908214605   1.0000000
N2   N   0.238298029802748   0.904983966669361   0.116535915258296   1.0000000
N2   N   0.238830394236744   0.048183948841031   0.116154460373048   1.0000000
N2   N   0.240110019860760   0.191992591593978   0.112566392387506   1.0000000
N2   N   0.238723512976001   0.333469586163017   0.106909658281567   1.0000000
N2   N   0.238678116305582   0.476390499947976   0.104719354168548   1.0000000
N2   N   0.238202914136873   0.619195059404993   0.107437132175931   1.0000000
N2   N   0.238119815448106   0.762034750065751   0.112915041618609   1.0000000
N2   N   0.381091095685501   0.904877337081252   0.114556770673537   1.0000000
N2   N   0.381391888725666   0.048049141624967   0.115507452617216   1.0000000
N2   N   0.382089533879679   0.191653021232612   0.111398740403454   1.0000000
N2   N   0.385086361645916   0.337667262109587   0.105521805260466   1.0000000
N2   N   0.379070260706607   0.474542866515772   0.083761152135152   1.0000000
N2   N   0.380920919120967   0.619229523445941   0.094517005523422   1.0000000
N2   N   0.380953216199646   0.761946748066591   0.107437589254350   1.0000000
N2   N   0.523872334041869   0.904479064429809   0.113070250831815   1.0000000
N2   N   0.524089714820267   0.047578405046134   0.115949825635137   1.0000000
N2   N   0.524364053013791   0.190766724429181   0.112323354528731   1.0000000
N2   N   0.525258298885931   0.334585459739785   0.106711913172009   1.0000000
N2   N   0.525593922982327   0.621061385689975   0.083770267187214   1.0000000
N2   N   0.523757476211312   0.761470433397478   0.104717297446434   1.0000000
N2   N   0.666697579522639   0.904199748412201   0.112959512852457   1.0000000
N2   N   0.666925532427713   0.047196790683596   0.116612764966646   1.0000000
N2   N   0.667088128812468   0.190135226047043   0.115579840809481   1.0000000
N2   N   0.667301243519346   0.332861349406201   0.110813612523752   1.0000000
N2   N   0.665578102350418   0.474902083457597   0.106703650115802   1.0000000
N2   N   0.662485045139723   0.615064959956526   0.105521258959675   1.0000000
N2   N   0.666666686883648   0.761415078855642   0.106906936138322   1.0000000
N2   N   0.809535274423301   0.904006815367876   0.115999086453849   1.0000000
N2   N   0.809858781960189   0.047115812297016   0.117560958437324   1.0000000
N2   N   0.810007416304141   0.190146616418051   0.117392069901791   1.0000000
N2   N   0.810026911151662   0.333072226770027   0.115593273330087   1.0000000
N2   N   0.809393182936009   0.475791645728663   0.112338374108062   1.0000000
N2   N   0.808506337007242   0.618063681590371   0.111416125669293   1.0000000
N2   N   0.808147652547078   0.760032069776722   0.112577889544846   1.0000000
P2   P   0.480666395581014   0.519477668355824   0.040482914511507   1.0000000


