data_1
_audit_creation_method   'vasp2cif'
_cell_length_a    17.52789999999977
_cell_length_b    17.52789999999977
_cell_length_c    15.0
_cell_angle_alpha    90.0
_cell_angle_beta    90.0
_cell_angle_gamma    119.99999999999916

_symmetry_space_group_name_H-M    'P 1'
loop_
_atom_site_label
_atom_site_type_symbol
_atom_site_fract_x
_atom_site_fract_y
_atom_site_fract_z
_atom_site_occupancy
B2   B   0.905304838327011   0.953190192811857   0.108144551100247   1.0000000
B2   B   0.905141902966354   0.095888059588969   0.108978453417737   1.0000000
B2   B   0.904973457482452   0.238523988992013   0.108802687329728   1.0000000
B2   B   0.904555491420596   0.381072178872685   0.108055502205302   1.0000000
B2   B   0.904290671466108   0.523686111629579   0.108320589260308   1.0000000
B2   B   0.904781252277028   0.666757060578955   0.108422368851630   1.0000000
B2   B   0.905455781689745   0.810357864203784   0.107446571974454   1.0000000
B2   B   0.047713541362659   0.952369420829558   0.107433958107700   1.0000000
B2   B   0.047813670903087   0.095429413945659   0.106942240147136   1.0000000
B2   B   0.047891907653195   0.238291286894951   0.107369484594800   1.0000000
B2   B   0.047912264375445   0.381054690979589   0.107891782270386   1.0000000
B2   B   0.047539939922368   0.523664224885552   0.108540762865186   1.0000000
B2   B   0.047432835881410   0.666400205799527   0.109122188610421   1.0000000
B2   B   0.047538683311845   0.809324863846263   0.108525100372618   1.0000000
B2   B   0.190136805105695   0.951722528945473   0.107591248957826   1.0000000
B2   B   0.189972683852684   0.094348299270007   0.105645214454183   1.0000000
B2   B   0.190447475897541   0.237697549260674   0.106862461019211   1.0000000
B2   B   0.191089620083489   0.380646376702411   0.107882054063673   1.0000000
B2   B   0.190812701480137   0.523662878603738   0.108420042522720   1.0000000
B2   B   0.190402158463145   0.666392156921058   0.109403495174169   1.0000000
B2   B   0.190253664149015   0.809081212901015   0.109245755793678   1.0000000
B2   B   0.333001305099447   0.951706290774335   0.107944881284316   1.0000000
B2   B   0.332734519691273   0.094005070277589   0.107912024759459   1.0000000
B2   B   0.331766243247864   0.235784403655904   0.113141662874785   1.0000000
B2   B   0.333829830373189   0.378621921320270   0.116470420480614   1.0000000
B2   B   0.333797225856632   0.523845057330524   0.111419319526334   1.0000000
B2   B   0.333437687758218   0.666722522790815   0.108853056211738   1.0000000
B2   B   0.333212745781053   0.809308958436517   0.109106818117334   1.0000000
B2   B   0.476091696260368   0.952381217050819   0.108081962254739   1.0000000
B2   B   0.475819713378069   0.094383825368252   0.106511740545476   1.0000000
B2   B   0.475442489850800   0.235860312344212   0.113902139724066   1.0000000
B2   B   0.467927310092514   0.364925907707954   0.159767940110574   1.0000000
B2   B   0.475797932614506   0.530325289230810   0.126192922921883   1.0000000
B2   B   0.476618436384061   0.668694128624998   0.107559837643069   1.0000000
B2   B   0.476327009828495   0.810319858573294   0.108149402813079   1.0000000
B2   B   0.619297006463912   0.953207898789156   0.108614597993633   1.0000000
B2   B   0.619033236864674   0.095459943147247   0.107618677283113   1.0000000
B2   B   0.618678435106684   0.237764258509409   0.107997446931928   1.0000000
B2   B   0.616289797508585   0.378790093690598   0.117758916359707   1.0000000
B2   B   0.626238884359139   0.530675203829137   0.127515873250265   1.0000000
B2   B   0.620637294034928   0.669721461193979   0.107823654807449   1.0000000
B2   B   0.619688695744104   0.811159344394213   0.107078540490659   1.0000000
B2   B   0.762443707192387   0.953472814682206   0.108615070008067   1.0000000
B2   B   0.762169853705325   0.095907669393108   0.109230695842992   1.0000000
B2   B   0.761833347562488   0.238324909852295   0.107976591416922   1.0000000
B2   B   0.760989906640881   0.380697682836453   0.108624698917532   1.0000000
B2   B   0.761524496357833   0.523923502913992   0.111743193928493   1.0000000
B2   B   0.763628929551537   0.668765108373195   0.107290818319019   1.0000000
B2   B   0.762913208811496   0.811153356115160   0.106780346539191   1.0000000
N2   N   0.952626463750360   0.905232700495680   0.107873078065058   1.0000000
N2   N   0.952655937613995   0.048174221060749   0.108328808660326   1.0000000
N2   N   0.952680527887178   0.191000879377057   0.108669869952725   1.0000000
N2   N   0.952557414381179   0.333705398245468   0.108304327167789   1.0000000
N2   N   0.952167502656704   0.476268024226930   0.108155530011452   1.0000000
N2   N   0.952056962741048   0.618933467583840   0.108734329392934   1.0000000
N2   N   0.952257645197896   0.761915030182360   0.108056423570298   1.0000000
N2   N   0.094940081602577   0.904345619941710   0.107923114032772   1.0000000
N2   N   0.094944221715202   0.047320583210967   0.106336786124772   1.0000000
N2   N   0.095298062362221   0.190568461706841   0.106474920407102   1.0000000
N2   N   0.095782027085098   0.333551106904296   0.107225586133864   1.0000000
N2   N   0.095521939820888   0.476259224477416   0.108196200444473   1.0000000
N2   N   0.095152713030286   0.618858465485367   0.109135327766947   1.0000000
N2   N   0.094978111876570   0.761520032244876   0.109236113444926   1.0000000
N2   N   0.237752053785980   0.904082326598521   0.108539888559199   1.0000000
N2   N   0.237508928453425   0.046647061226912   0.106477186958029   1.0000000
N2   N   0.237157798814707   0.189255109431806   0.105492427091306   1.0000000
N2   N   0.238720714092236   0.333082904391494   0.108401149542944   1.0000000
N2   N   0.238820693245353   0.476171554964026   0.108639177396216   1.0000000
N2   N   0.238330324914652   0.618914279453563   0.109120034086388   1.0000000
N2   N   0.237975169483486   0.761510472528956   0.109591969612600   1.0000000
N2   N   0.380831877334672   0.904332138027738   0.108495610717813   1.0000000
N2   N   0.380578927728363   0.046638040806327   0.106959480783041   1.0000000
N2   N   0.380025110982305   0.188630385747411   0.111846718173879   1.0000000
N2   N   0.378164298501850   0.329356511345815   0.126976666910493   1.0000000
N2   N   0.382255891491178   0.475777767471335   0.116918901574412   1.0000000
N2   N   0.381535029407379   0.619208968090409   0.109193898496787   1.0000000
N2   N   0.381089741886405   0.761874940299124   0.108753933029761   1.0000000
N2   N   0.524020038496126   0.905211133270471   0.108515119239768   1.0000000
N2   N   0.523799717405094   0.047332885445845   0.107086740701701   1.0000000
N2   N   0.523527923266363   0.189299909754661   0.106639570526238   1.0000000
N2   N   0.522587181766919   0.329455185750333   0.127879461418598   1.0000000
N2   N   0.525236569369641   0.621870463927633   0.108888731923763   1.0000000
N2   N   0.524373420224224   0.763282325435312   0.106972432842693   1.0000000
N2   N   0.667193292910371   0.905929410317262   0.108295516622549   1.0000000
N2   N   0.666934056905450   0.048192549056862   0.108755964827258   1.0000000
N2   N   0.666691555936893   0.190606730867712   0.107327957443848   1.0000000
N2   N   0.665794521338923   0.333154623956161   0.109674527131982   1.0000000
N2   N   0.665075112810918   0.475931857094876   0.117996811558395   1.0000000
N2   N   0.668264178845892   0.622001169491222   0.109128772724565   1.0000000
N2   N   0.667687433840710   0.763935945480309   0.106104734461928   1.0000000
N2   N   0.810144579462386   0.905926645891242   0.108022818275871   1.0000000
N2   N   0.809920737604523   0.048433406641827   0.109442900669245   1.0000000
N2   N   0.809744440415428   0.191017301585225   0.108955922982653   1.0000000
N2   N   0.809191338317778   0.333579006488301   0.107753150234714   1.0000000
N2   N   0.808804292263719   0.476214258100450   0.108905066959398   1.0000000
N2   N   0.809212514061602   0.619277955084643   0.109010671131311   1.0000000
N2   N   0.810403547995630   0.763342229808603   0.106360265507290   1.0000000
P2   P   0.524478947023712   0.477484619652374   0.211455640261393   1.0000000


