data_1
_audit_creation_method   'vasp2cif'
_cell_length_a    17.52789999999977
_cell_length_b    17.52789999999977
_cell_length_c    15.0
_cell_angle_alpha    90.0
_cell_angle_beta    90.0
_cell_angle_gamma    119.99999999999916

_symmetry_space_group_name_H-M    'P 1'
loop_
_atom_site_label
_atom_site_type_symbol
_atom_site_fract_x
_atom_site_fract_y
_atom_site_fract_z
_atom_site_occupancy
B2   B   0.904837833487163   0.952438693818133   0.110995868757358   1.0000000
B2   B   0.904646829830368   0.095203471779723   0.111035834947508   1.0000000
B2   B   0.904511901178242   0.238065876575203   0.111048560852586   1.0000000
B2   B   0.904588487794744   0.381054023878804   0.110980829046337   1.0000000
B2   B   0.905020434736070   0.524056630511603   0.110971995689596   1.0000000
B2   B   0.904797009717136   0.667010657790190   0.111033517469333   1.0000000
B2   B   0.905396804659383   0.810107398300416   0.111040795901796   1.0000000
B2   B   0.047828464385876   0.952493307772042   0.110990182098222   1.0000000
B2   B   0.047425010186663   0.095090432417730   0.110987395632772   1.0000000
B2   B   0.047243422330426   0.237897621793220   0.110975748275696   1.0000000
B2   B   0.047299730730850   0.380904101129395   0.111008706328653   1.0000000
B2   B   0.047631327038835   0.523941753351889   0.111004358344667   1.0000000
B2   B   0.047941475839015   0.666811793989946   0.111014251279650   1.0000000
B2   B   0.047965077877386   0.809699001180017   0.110975391675115   1.0000000
B2   B   0.190690608896526   0.952406926675737   0.110981346767751   1.0000000
B2   B   0.190235929126065   0.094986897861296   0.111036471952769   1.0000000
B2   B   0.189956714807777   0.237750142179332   0.110969047205554   1.0000000
B2   B   0.189807164449214   0.380556711800299   0.110964044550400   1.0000000
B2   B   0.190101660069971   0.523812192160404   0.111062965072888   1.0000000
B2   B   0.191195464796909   0.666668120507997   0.111082388885928   1.0000000
B2   B   0.190826618792438   0.809544711263441   0.110997057689725   1.0000000
B2   B   0.333571350749520   0.952314207900977   0.111015810992339   1.0000000
B2   B   0.333420409410345   0.095271779118512   0.111051582812950   1.0000000
B2   B   0.332585618207720   0.237600406584065   0.111060030117491   1.0000000
B2   B   0.332489050822701   0.380158461717131   0.111001118777262   1.0000000
B2   B   0.331699416324642   0.523284662093837   0.110998496541602   1.0000000
B2   B   0.334946007028649   0.666605516825306   0.111072451519522   1.0000000
B2   B   0.333716281142370   0.809346501098989   0.111071921239350   1.0000000
B2   B   0.476339780807715   0.951932686660916   0.110984655284383   1.0000000
B2   B   0.476286208060762   0.095118470705892   0.110986020132589   1.0000000
B2   B   0.476271755072810   0.238244646768921   0.111073196525985   1.0000000
B2   B   0.475046423936070   0.380761203241213   0.111162515615704   1.0000000
B2   B   0.471560387081396   0.520239779421927   0.111166619525565   1.0000000
B2   B   0.479388164525920   0.665215543713747   0.111083941886123   1.0000000
B2   B   0.476419156447386   0.808495235377286   0.111009955396937   1.0000000
B2   B   0.619012368154876   0.952364086583282   0.110985162456113   1.0000000
B2   B   0.618974254545035   0.095256972889368   0.110988986660481   1.0000000
B2   B   0.618973739226368   0.238344979057031   0.111013208400187   1.0000000
B2   B   0.618721446378854   0.381521948149127   0.111035982247183   1.0000000
B2   B   0.621059490288670   0.525299517909835   0.111165719560837   1.0000000
B2   B   0.618887162189478   0.667791389777664   0.111079621096149   1.0000000
B2   B   0.619493948078358   0.810199094907727   0.110994776154827   1.0000000
B2   B   0.762070724005019   0.952529769480316   0.110984019703922   1.0000000
B2   B   0.761772208073680   0.095234247758717   0.111057420193404   1.0000000
B2   B   0.761722060734055   0.238186160140186   0.111064033947337   1.0000000
B2   B   0.761746659243609   0.381181114060353   0.111003124438258   1.0000000
B2   B   0.762541237437247   0.524244611154301   0.111029875932651   1.0000000
B2   B   0.762162646052039   0.668081602934778   0.111076403280237   1.0000000
B2   B   0.762244035575164   0.809717393542913   0.111006025627655   1.0000000
C2   C   0.524466511336367   0.479644303157987   0.111336575778458   1.0000000
N2   N   0.952565622076826   0.905046437148244   0.110995945657846   1.0000000
N2   N   0.952105877357883   0.047476449498988   0.110989441077057   1.0000000
N2   N   0.952024848400284   0.190318334150393   0.111014254826639   1.0000000
N2   N   0.952142192841195   0.333311638224896   0.110989286800590   1.0000000
N2   N   0.952562891756797   0.476375052782676   0.110938084389902   1.0000000
N2   N   0.952672220947246   0.619412330731039   0.110986980945933   1.0000000
N2   N   0.952715934604903   0.762313386193025   0.111008723651303   1.0000000
N2   N   0.095419219886126   0.904821575082435   0.110942791979345   1.0000000
N2   N   0.095000869482444   0.047457274075198   0.110990624525834   1.0000000
N2   N   0.094694674959612   0.190211250401901   0.110952220684417   1.0000000
N2   N   0.094703645743524   0.333152124489069   0.110957938571989   1.0000000
N2   N   0.095112234051398   0.476292540468836   0.111021168637495   1.0000000
N2   N   0.095837806818883   0.619232044914140   0.111021743777512   1.0000000
N2   N   0.095628376454867   0.762037183480896   0.110968001714143   1.0000000
N2   N   0.238348055420478   0.904654301180226   0.110967734352511   1.0000000
N2   N   0.238025093970838   0.047438933254608   0.111016765503734   1.0000000
N2   N   0.237262917411314   0.189894653142909   0.111015676662433   1.0000000
N2   N   0.237175716422850   0.333031505455301   0.110946224250983   1.0000000
N2   N   0.237227226655242   0.476150310805072   0.110989486247795   1.0000000
N2   N   0.239381370369429   0.619166587400214   0.111079055981403   1.0000000
N2   N   0.238641352062413   0.761831433106856   0.111048800228445   1.0000000
N2   N   0.381210830032011   0.904377456873699   0.111019411068690   1.0000000
N2   N   0.381010775311257   0.047354185311814   0.110999463925246   1.0000000
N2   N   0.380654515276751   0.190178139338151   0.111064510638642   1.0000000
N2   N   0.379162539159502   0.332202023478562   0.111044820586075   1.0000000
N2   N   0.378402320953535   0.476611080091913   0.110973766221210   1.0000000
N2   N   0.384133718305720   0.619023021461574   0.111041668201442   1.0000000
N2   N   0.381673645110729   0.761452031987735   0.111040121932835   1.0000000
N2   N   0.523885736542482   0.903747048111336   0.110964015439983   1.0000000
N2   N   0.523809880194293   0.047092794642133   0.110943538280881   1.0000000
N2   N   0.523774656903779   0.190148915377035   0.111007036567672   1.0000000
N2   N   0.523468872402542   0.332862987640953   0.111067111085724   1.0000000
N2   N   0.524324808964439   0.759809237003396   0.111007647026069   1.0000000
N2   N   0.666624850861846   0.904597982132051   0.110969551046318   1.0000000
N2   N   0.666506366904567   0.047353204130778   0.110998271564336   1.0000000
N2   N   0.666563714125402   0.190400510040566   0.111016846147151   1.0000000
N2   N   0.666632020817900   0.333573546231568   0.110992574825207   1.0000000
N2   N   0.668306059836005   0.477256936326321   0.111033278924493   1.0000000
N2   N   0.666560239511515   0.621821980108856   0.111085122943920   1.0000000
N2   N   0.665676322166519   0.761476237693544   0.111001350597738   1.0000000
N2   N   0.809293141357034   0.904664288400239   0.110962361622870   1.0000000
N2   N   0.809333081989850   0.047469794662035   0.111019456415559   1.0000000
N2   N   0.809295824926932   0.190363031617953   0.111061830705964   1.0000000
N2   N   0.809433815089587   0.333407364006813   0.111010927464399   1.0000000
N2   N   0.810122989326225   0.476588959948212   0.110979539593273   1.0000000
N2   N   0.809584590519769   0.619955117754784   0.111044075698391   1.0000000
N2   N   0.810043431165426   0.762935596356935   0.111038894416861   1.0000000


