data_1
_audit_creation_method   'vasp2cif'
_cell_length_a    14.93631414619966
_cell_length_b    14.936314146199727
_cell_length_c    13.341276283792837
_cell_angle_alpha    90.0
_cell_angle_beta    90.0
_cell_angle_gamma    119.99999999999984

_symmetry_space_group_name_H-M    'P 1'
loop_
_atom_site_label
_atom_site_type_symbol
_atom_site_fract_x
_atom_site_fract_y
_atom_site_fract_z
_atom_site_occupancy
In2   In   0.444444444444443   0.388888888888886   0.375000000000000   1.0000000
N2   N   0.111087208580452   0.055534064002403   0.124841964612349   1.0000000
N2   N   0.611136007465102   0.555585952618074   0.125367491151820   1.0000000
N2   N   0.444446855421950   0.055534064002403   0.124841964612349   1.0000000
N2   N   0.944451740677561   0.555558545512410   0.125074137238440   1.0000000
N2   N   0.777777777777779   0.055555555555557   0.125088414232654   1.0000000
N2   N   0.111111111111114   0.722222222222221   0.624862506604884   1.0000000
N2   N   0.444446855421950   0.722246124752884   0.625158035387651   1.0000000
N2   N   0.277747380715262   0.222197325868233   0.624632508848180   1.0000000
N2   N   0.777799269330932   0.722246124752884   0.625158035387651   1.0000000
N2   N   0.611120699910783   0.222212633422553   0.625147773484790   1.0000000
N2   N   0.944437853531997   0.222219938400586   0.625020871663895   1.0000000
N2   N   0.277774787820925   0.722226528498486   0.125074137238440   1.0000000
N2   N   0.111091933511777   0.222212633422553   0.124852226515209   1.0000000
N2   N   0.444449945152971   0.222197325868233   0.125367491151820   1.0000000
N2   N   0.611120699910783   0.722241399821559   0.124852226515209   1.0000000
N2   N   0.944451740677561   0.722226528498486   0.125074137238440   1.0000000
N2   N   0.777782084868590   0.222219938400586   0.124979128336104   1.0000000
N2   N   0.111106804834850   0.888881592655768   0.624925862761560   1.0000000
N2   N   0.444448862434715   0.888891097884022   0.625016461419020   1.0000000
N2   N   0.277747380715262   0.388883388180357   0.624632508848180   1.0000000
N2   N   0.611136007465102   0.388883388180357   0.624632508848180   1.0000000
N2   N   0.777782084868590   0.888895479801331   0.625020871663895   1.0000000
N2   N   0.944442235449306   0.388884470898613   0.625016461419020   1.0000000
N2   N   0.111087208580452   0.388886477911378   0.124841964612349   1.0000000
N2   N   0.277774787820925   0.888881592655768   0.125074137238440   1.0000000
N2   N   0.611113394932749   0.888895479801331   0.124979128336104   1.0000000
N2   N   0.444444444444443   0.388888888888886   0.130523162376697   1.0000000
N2   N   0.944442235449306   0.888891097884022   0.124983538580980   1.0000000
N2   N   0.777799269330932   0.388886477911378   0.124841964612349   1.0000000
N2   N   0.277769211954738   0.555564121378597   0.624964945483148   1.0000000
N2   N   0.111087208580452   0.055534064002403   0.625158035387651   1.0000000
N2   N   0.611136007465102   0.555585952618074   0.624632508848180   1.0000000
N2   N   0.444446855421950   0.055534064002403   0.625158035387651   1.0000000
N2   N   0.944451740677561   0.555558545512410   0.624925862761560   1.0000000
N2   N   0.111106804834850   0.555558545512410   0.125074137238440   1.0000000
N2   N   0.777777777777779   0.055555555555557   0.624911585767347   1.0000000
N2   N   0.277769211954738   0.055538423909477   0.125035054516852   1.0000000
N2   N   0.444449945152971   0.555585952618074   0.125367491151820   1.0000000
N2   N   0.777794909423859   0.555564121378597   0.125035054516852   1.0000000
N2   N   0.611113394932749   0.055551248464746   0.124979128336104   1.0000000
N2   N   0.444449945152971   0.555585952618074   0.624632508848180   1.0000000
N2   N   0.944437853531997   0.055551248464746   0.124979128336104   1.0000000
N2   N   0.277774787820925   0.722226528498486   0.624925862761560   1.0000000
N2   N   0.111091933511777   0.222212633422553   0.625147773484790   1.0000000
N2   N   0.444449945152971   0.222197325868233   0.624632508848180   1.0000000
N2   N   0.611120699910783   0.722241399821559   0.625147773484790   1.0000000
N2   N   0.944451740677561   0.722226528498486   0.624925862761560   1.0000000
N2   N   0.777782084868590   0.222219938400586   0.625020871663895   1.0000000
N2   N   0.111111111111114   0.722222222222221   0.125137493395116   1.0000000
N2   N   0.444446855421950   0.722246124752884   0.124841964612349   1.0000000
N2   N   0.277747380715262   0.222197325868233   0.125367491151820   1.0000000
N2   N   0.777799269330932   0.722246124752884   0.124841964612349   1.0000000
N2   N   0.611120699910783   0.222212633422553   0.124852226515209   1.0000000
N2   N   0.944437853531997   0.222219938400586   0.124979128336104   1.0000000
N2   N   0.111087208580452   0.388886477911378   0.625158035387651   1.0000000
N2   N   0.277774787820925   0.888881592655768   0.624925862761560   1.0000000
N2   N   0.611113394932749   0.888895479801331   0.625020871663895   1.0000000
N2   N   0.444444444444443   0.388888888888886   0.619476837623304   1.0000000
N2   N   0.944442235449306   0.888891097884022   0.625016461419020   1.0000000
N2   N   0.111106804834850   0.888881592655768   0.125074137238440   1.0000000
N2   N   0.777799269330932   0.388886477911378   0.625158035387651   1.0000000
N2   N   0.444448862434715   0.888891097884022   0.124983538580980   1.0000000
N2   N   0.277747380715262   0.388883388180357   0.125367491151820   1.0000000
N2   N   0.277769211954738   0.555564121378597   0.125035054516852   1.0000000
N2   N   0.611136007465102   0.388883388180357   0.125367491151820   1.0000000
N2   N   0.777782084868590   0.888895479801331   0.124979128336104   1.0000000
N2   N   0.944442235449306   0.388884470898613   0.124983538580980   1.0000000
N2   N   0.111106804834850   0.555558545512410   0.624925862761560   1.0000000
N2   N   0.277769211954738   0.055538423909477   0.624964945483148   1.0000000
N2   N   0.777794909423859   0.555564121378597   0.624964945483148   1.0000000
N2   N   0.611113394932749   0.055551248464746   0.625020871663895   1.0000000
N2   N   0.944437853531997   0.055551248464746   0.625020871663895   1.0000000
N2   N   0.053950144712957   0.110083700087750   0.375000000000000   1.0000000
N2   N   0.556271283953753   0.612542567907507   0.375000000000000   1.0000000
N2   N   0.387245195079767   0.101464198872868   0.375000000000000   1.0000000
N2   N   0.892167006559825   0.612750169946584   0.375000000000000   1.0000000
N2   N   0.722516727814138   0.110816605519198   0.375000000000000   1.0000000
N2   N   0.055554552389876   0.777778780943459   0.875000000000000   1.0000000
N2   N   0.388890041753660   0.777777603697867   0.875000000000000   1.0000000
N2   N   0.222223806691639   0.277778570012487   0.875000000000000   1.0000000
N2   N   0.722223157211829   0.777780008667612   0.875000000000000   1.0000000
N2   N   0.555554763320848   0.277778570012487   0.875000000000000   1.0000000
N2   N   0.888889288910989   0.277778577821985   0.875000000000000   1.0000000
N2   N   0.221591814436781   0.777462573885059   0.375000000000000   1.0000000
N2   N   0.053950144712957   0.277199777958542   0.375000000000000   1.0000000
N2   N   0.372534778159671   0.245069556319349   0.375000000000000   1.0000000
N2   N   0.556133555374794   0.779383188620379   0.375000000000000   1.0000000
N2   N   0.891604848353384   0.779979189446019   0.375000000000000   1.0000000
N2   N   0.723249633245585   0.277199777958542   0.375000000000000   1.0000000
N2   N   0.055555729635468   0.944445771389128   0.875000000000000   1.0000000
N2   N   0.388890041753660   0.944445771389128   0.875000000000000   1.0000000
N2   N   0.222226033071630   0.444439524712902   0.875000000000000   1.0000000
N2   N   0.555535719622910   0.444434526478119   0.875000000000000   1.0000000
N2   N   0.722222317890602   0.944444635781204   0.875000000000000   1.0000000
N2   N   0.888887561944201   0.444443291579669   0.875000000000000   1.0000000
N2   N   0.053354143887317   0.444958992240701   0.375000000000000   1.0000000
N2   N   0.220583163386751   0.941166326773504   0.375000000000000   1.0000000
N2   N   0.556030172107962   0.944681752720644   0.375000000000000   1.0000000
N2   N   0.372534778159671   0.460798555173658   0.375000000000000   1.0000000
N2   N   0.888651580612684   0.944681752720644   0.375000000000000   1.0000000
N2   N   0.731869134460467   0.446088138253562   0.375000000000000   1.0000000
N2   N   0.222224839973139   0.611108493360196   0.875000000000000   1.0000000
N2   N   0.055553324665724   0.111110176121507   0.875000000000000   1.0000000
N2   N   0.555554763320848   0.611109526641697   0.875000000000000   1.0000000
N2   N   0.388893808620426   0.111119841692063   0.875000000000000   1.0000000
N2   N   0.888883653387049   0.611108493360196   0.875000000000000   1.0000000
N2   N   0.055870759448277   0.611741518896554   0.375000000000000   1.0000000
N2   N   0.722222317890602   0.111111015442734   0.875000000000000   1.0000000
N2   N   0.214219003793094   0.101464198872868   0.375000000000000   1.0000000
N2   N   0.387245195079767   0.619114329540241   0.375000000000000   1.0000000
N2   N   0.731869134460467   0.619114329540241   0.375000000000000   1.0000000
N2   N   0.556133555374794   0.110083700087750   0.375000000000000   1.0000000
N2   N   0.388893808620426   0.611107300261706   0.875000000000000   1.0000000
N2   N   0.888299877705052   0.110816605519198   0.375000000000000   1.0000000
N2   N   0.222224228553585   0.777778780943459   0.875000000000000   1.0000000
N2   N   0.055553324665724   0.277776481877552   0.875000000000000   1.0000000
N2   N   0.388898806855209   0.277797613710426   0.875000000000000   1.0000000
N2   N   0.555556851455784   0.777780008667612   0.875000000000000   1.0000000
N2   N   0.888887561944201   0.777777603697867   0.875000000000000   1.0000000
N2   N   0.722223157211829   0.277776481877552   0.875000000000000   1.0000000
N2   N   0.055870759448277   0.777462573885059   0.375000000000000   1.0000000
N2   N   0.388374341092628   0.779979189446019   0.375000000000000   1.0000000
N2   N   0.220790765425830   0.277062049379582   0.375000000000000   1.0000000
N2   N   0.723249633245584   0.779383188620379   0.375000000000000   1.0000000
N2   N   0.556271283953753   0.277062049379582   0.375000000000000   1.0000000
N2   N   0.888651580612684   0.277303161225375   0.375000000000000   1.0000000
N2   N   0.055555729635468   0.444443291579669   0.875000000000000   1.0000000
N2   N   0.222224839973139   0.944449679946280   0.875000000000000   1.0000000
N2   N   0.555554755511350   0.944444044422340   0.875000000000000   1.0000000
N2   N   0.388898806855209   0.444434526478119   0.875000000000000   1.0000000
N2   N   0.888889288910989   0.944444044422340   0.875000000000000   1.0000000
N2   N   0.053354143887317   0.941728484979945   0.375000000000000   1.0000000
N2   N   0.722213491641273   0.444439524712902   0.875000000000000   1.0000000
N2   N   0.388374341092628   0.941728484979945   0.375000000000000   1.0000000
N2   N   0.214219003793094   0.446088138253562   0.375000000000000   1.0000000
N2   N   0.220583163386751   0.612750169946584   0.375000000000000   1.0000000
N2   N   0.588263777013987   0.460798555173658   0.375000000000000   1.0000000
N2   N   0.722516727814138   0.945033455628276   0.375000000000000   1.0000000
N2   N   0.891604848353384   0.444958992240701   0.375000000000000   1.0000000
N2   N   0.055554552389876   0.611109104779751   0.875000000000000   1.0000000
N2   N   0.222226033071630   0.111119841692063   0.875000000000000   1.0000000
N2   N   0.722213491641273   0.611107300261706   0.875000000000000   1.0000000
N2   N   0.555556851455784   0.111110176121507   0.875000000000000   1.0000000
N2   N   0.888888697552125   0.111111015442734   0.875000000000000   1.0000000
B2   B   0.105913654869128   0.050825449396596   0.375000000000000   1.0000000
B2   B   0.622993988585314   0.565450936571945   0.375000000000000   1.0000000
B2   B   0.444911794527469   0.050825449396596   0.375000000000000   1.0000000
B2   B   0.945878241599123   0.555925243988771   0.375000000000000   1.0000000
B2   B   0.777777777777779   0.055555555555557   0.375000000000000   1.0000000
B2   B   0.111111111111114   0.722222222222221   0.875000000000000   1.0000000
B2   B   0.444451143492024   0.722234363412771   0.875000000000000   1.0000000
B2   B   0.277753622926872   0.222208587030761   0.875000000000000   1.0000000
B2   B   0.777783219920748   0.722234363412771   0.875000000000000   1.0000000
B2   B   0.611122406450771   0.222210926882565   0.875000000000000   1.0000000
B2   B   0.944435307380270   0.222216382485481   0.875000000000000   1.0000000
B2   B   0.277408089344564   0.723286330943687   0.375000000000000   1.0000000
B2   B   0.109657631533351   0.221495482433340   0.375000000000000   1.0000000
B2   B   0.442456947986631   0.210339344748022   0.375000000000000   1.0000000
B2   B   0.611837850899996   0.723675701799984   0.375000000000000   1.0000000
B2   B   0.945878241599123   0.723286330943687   0.375000000000000   1.0000000
B2   B   0.777965746343594   0.221483423507682   0.375000000000000   1.0000000
B2   B   0.111109361828619   0.888888018399826   0.875000000000000   1.0000000
B2   B   0.444448600594662   0.888890966963995   0.875000000000000   1.0000000
B2   B   0.277753622926872   0.388878369229440   0.875000000000000   1.0000000
B2   B   0.611124746302575   0.388878369229440   0.875000000000000   1.0000000
B2   B   0.777781075105209   0.888898025953058   0.875000000000000   1.0000000
B2   B   0.944442366369333   0.388884732738667   0.875000000000000   1.0000000
B2   B   0.105913654869127   0.388421538805860   0.375000000000000   1.0000000
B2   B   0.277408089344564   0.887455091734206   0.375000000000000   1.0000000
B2   B   0.611849909825653   0.889815656169242   0.375000000000000   1.0000000
B2   B   0.944169917144722   0.889163416188606   0.375000000000000   1.0000000
B2   B   0.782507883936740   0.388421538805860   0.375000000000000   1.0000000
B2   B   0.277775138586610   0.555558194746725   0.875000000000000   1.0000000
B2   B   0.111098969920564   0.055550113412588   0.875000000000000   1.0000000
B2   B   0.611124746302575   0.555579710406464   0.875000000000000   1.0000000
B2   B   0.444451143492024   0.055550113412588   0.875000000000000   1.0000000
B2   B   0.944445314933503   0.555554676762122   0.875000000000000   1.0000000
B2   B   0.110047002389649   0.555925243988771   0.375000000000000   1.0000000
B2   B   0.777777777777779   0.055555555555557   0.875000000000000   1.0000000
B2   B   0.275322397907723   0.050644795815446   0.375000000000000   1.0000000
B2   B   0.442456947986631   0.565450936571945   0.375000000000000   1.0000000
B2   B   0.782688537517889   0.558010935425613   0.375000000000000   1.0000000
B2   B   0.611849909825653   0.055367586989741   0.375000000000000   1.0000000
B2   B   0.444454964103889   0.555579710406464   0.875000000000000   1.0000000
B2   B   0.943517677164087   0.055367586989741   0.375000000000000   1.0000000
B2   B   0.277778656571214   0.722223971504717   0.875000000000000   1.0000000
B2   B   0.111088520431801   0.222210926882565   0.875000000000000   1.0000000
B2   B   0.444454964103889   0.222208587030761   0.875000000000000   1.0000000
B2   B   0.611122406450771   0.722244812901535   0.875000000000000   1.0000000
B2   B   0.944445314933503   0.722223971504717   0.875000000000000   1.0000000
B2   B   0.777781075105209   0.222216382485481   0.875000000000000   1.0000000
B2   B   0.111111111111114   0.722222222222221   0.375000000000000   1.0000000
B2   B   0.444911794527469   0.727419678464208   0.375000000000000   1.0000000
B2   B   0.267882396761391   0.210339344748022   0.375000000000000   1.0000000
B2   B   0.782507883936740   0.727419678464208   0.375000000000000   1.0000000
B2   B   0.611837850899996   0.221495482433340   0.375000000000000   1.0000000
B2   B   0.943517677164087   0.221483423507682   0.375000000000000   1.0000000
B2   B   0.111098969920564   0.388882189841305   0.875000000000000   1.0000000
B2   B   0.277778656571214   0.888888018399826   0.875000000000000   1.0000000
B2   B   0.611116950847855   0.888898025953058   0.875000000000000   1.0000000
B2   B   0.444444444444443   0.388888888888886   0.875000000000000   1.0000000
B2   B   0.944442366369333   0.888890966963995   0.875000000000000   1.0000000
B2   B   0.110047002389649   0.887455091734206   0.375000000000000   1.0000000
B2   B   0.777783219920748   0.388882189841305   0.875000000000000   1.0000000
B2   B   0.444993499043886   0.889163416188606   0.375000000000000   1.0000000
B2   B   0.267882396761391   0.390876385346698   0.375000000000000   1.0000000
B2   B   0.275322397907723   0.558010935425613   0.375000000000000   1.0000000
B2   B   0.622993988585314   0.390876385346698   0.375000000000000   1.0000000
B2   B   0.777965746343594   0.889815656169242   0.375000000000000   1.0000000
B2   B   0.944169917144722   0.388339834289443   0.375000000000000   1.0000000
B2   B   0.111109361828619   0.555554676762122   0.875000000000000   1.0000000
B2   B   0.277775138586610   0.055550277173221   0.875000000000000   1.0000000
B2   B   0.777783056160115   0.555558194746725   0.875000000000000   1.0000000
B2   B   0.611116950847855   0.055552258228126   0.875000000000000   1.0000000
B2   B   0.944435307380270   0.055552258228126   0.875000000000000   1.0000000
B2   B   0.055513499739769   0.111075000082725   0.124802153698384   1.0000000
B2   B   0.555615254329707   0.611230508659413   0.125103493809284   1.0000000
B2   B   0.388842430733328   0.110976286535254   0.124930171925557   1.0000000
B2   B   0.888939771617913   0.611136552475628   0.124963612873664   1.0000000
B2   B   0.722227540037179   0.111105793296156   0.124945929184702   1.0000000
B2   B   0.055559397138269   0.777773936195066   0.625002897622367   1.0000000
B2   B   0.388883123529929   0.777801793605083   0.625119405366185   1.0000000
B2   B   0.222102824673922   0.277718079003629   0.624896506190716   1.0000000
B2   B   0.722258333250610   0.777819833593568   0.625197846301616   1.0000000
B2   B   0.555615254329707   0.277718079003629   0.624896506190716   1.0000000
B2   B   0.888886729198869   0.277773458397746   0.625099849893705   1.0000000
B2   B   0.222214539056797   0.777773936195066   0.124997102377632   1.0000000
B2   B   0.055513499739769   0.277771832990379   0.124802153698384   1.0000000
B2   B   0.388686013012728   0.277372026025464   0.126631145843246   1.0000000
B2   B   0.555561500342956   0.777819833593568   0.124802153698384   1.0000000
B2   B   0.888918670075148   0.777801793605083   0.124880594633814   1.0000000
B2   B   0.722258333250610   0.277771832990379   0.124802153698384   1.0000000
B2   B   0.055531539728252   0.944414663258180   0.625119405366185   1.0000000
B2   B   0.388883123529929   0.944414663258180   0.625119405366185   1.0000000
B2   B   0.222133855801919   0.444490902600001   0.625069828074443   1.0000000
B2   B   0.555961307307872   0.444647320320600   0.623368854156753   1.0000000
B2   B   0.722227540037179   0.944455080074359   0.625054070815298   1.0000000
B2   B   0.888918670075148   0.444450209803400   0.625119405366185   1.0000000
B2   B   0.055531539728252   0.444450209803400   0.124880594633814   1.0000000
B2   B   0.222196780857708   0.944393561715415   0.124963612873664   1.0000000
B2   B   0.555559874935590   0.944446604134459   0.124900150106295   1.0000000
B2   B   0.388686013012728   0.444647320320600   0.126631145843246   1.0000000
B2   B   0.888886729198869   0.944446604134459   0.124900150106295   1.0000000
B2   B   0.722357046798082   0.444490902600001   0.124930171925557   1.0000000
B2   B   0.222196780857708   0.611136552475628   0.625036387126336   1.0000000
B2   B   0.055513499739769   0.111075000082725   0.625197846301616   1.0000000
B2   B   0.555615254329707   0.611230508659413   0.624896506190716   1.0000000
B2   B   0.388842430733328   0.110976286535254   0.625069828074443   1.0000000
B2   B   0.888939771617913   0.611136552475628   0.625036387126336   1.0000000
B2   B   0.055559397138269   0.611118794276538   0.124997102377632   1.0000000
B2   B   0.722227540037179   0.111105793296156   0.625054070815298   1.0000000
B2   B   0.222133855801919   0.110976286535254   0.124930171925557   1.0000000
B2   B   0.388842430733328   0.611199477531416   0.124930171925557   1.0000000
B2   B   0.722357046798082   0.611199477531416   0.124930171925557   1.0000000
B2   B   0.555561500342956   0.111075000082725   0.124802153698384   1.0000000
B2   B   0.388842430733328   0.611199477531416   0.625069828074443   1.0000000
B2   B   0.888878253258969   0.111105793296156   0.124945929184702   1.0000000
B2   B   0.222214539056797   0.777773936195066   0.625002897622367   1.0000000
B2   B   0.055513499739769   0.277771832990379   0.625197846301616   1.0000000
B2   B   0.388686013012728   0.277372026025464   0.623368854156753   1.0000000
B2   B   0.555561500342956   0.777819833593568   0.625197846301616   1.0000000
B2   B   0.888918670075148   0.777801793605083   0.625119405366185   1.0000000
B2   B   0.722258333250610   0.277771832990379   0.625197846301616   1.0000000
B2   B   0.055559397138269   0.777773936195066   0.124997102377632   1.0000000
B2   B   0.388883123529929   0.777801793605083   0.124880594633814   1.0000000
B2   B   0.222102824673922   0.277718079003629   0.125103493809284   1.0000000
B2   B   0.722258333250610   0.777819833593568   0.124802153698384   1.0000000
B2   B   0.555615254329707   0.277718079003629   0.125103493809284   1.0000000
B2   B   0.888886729198869   0.277773458397746   0.124900150106295   1.0000000
B2   B   0.055531539728252   0.444450209803400   0.625119405366185   1.0000000
B2   B   0.222196780857708   0.944393561715415   0.625036387126336   1.0000000
B2   B   0.555559874935590   0.944446604134459   0.625099849893705   1.0000000
B2   B   0.388686013012728   0.444647320320600   0.623368854156753   1.0000000
B2   B   0.888886729198869   0.944446604134459   0.625099849893705   1.0000000
B2   B   0.055531539728252   0.944414663258180   0.124880594633814   1.0000000
B2   B   0.722357046798082   0.444490902600001   0.625069828074443   1.0000000
B2   B   0.388883123529929   0.944414663258180   0.124880594633814   1.0000000
B2   B   0.222133855801919   0.444490902600001   0.124930171925557   1.0000000
B2   B   0.222196780857708   0.611136552475628   0.124963612873664   1.0000000
B2   B   0.555961307307872   0.444647320320600   0.126631145843246   1.0000000
B2   B   0.722227540037179   0.944455080074359   0.124945929184702   1.0000000
B2   B   0.888918670075148   0.444450209803400   0.124880594633814   1.0000000
B2   B   0.055559397138269   0.611118794276538   0.625002897622367   1.0000000
B2   B   0.222133855801919   0.110976286535254   0.625069828074443   1.0000000
B2   B   0.722357046798082   0.611199477531416   0.625069828074443   1.0000000
B2   B   0.555561500342956   0.111075000082725   0.625197846301616   1.0000000
B2   B   0.888878253258969   0.111105793296156   0.625054070815298   1.0000000


