data_1
_audit_creation_method   'vasp2cif'
_cell_length_a    14.93631414619966
_cell_length_b    14.936314146199727
_cell_length_c    13.341276283792837
_cell_angle_alpha    90.0
_cell_angle_beta    90.0
_cell_angle_gamma    119.99999999999984

_symmetry_space_group_name_H-M    'P 1'
loop_
_atom_site_label
_atom_site_type_symbol
_atom_site_fract_x
_atom_site_fract_y
_atom_site_fract_z
_atom_site_occupancy
Se2   Se   0.524471452340741   0.428902392837035   0.375000000000000   1.0000000
N2   N   0.110995354102377   0.055502639857174   0.124947989644823   1.0000000
N2   N   0.611047201675622   0.555583947075838   0.124560888308442   1.0000000
N2   N   0.444437825681205   0.055539301333773   0.124922206146371   1.0000000
N2   N   0.944365774403754   0.555507798546470   0.124873467137490   1.0000000
N2   N   0.777724662690204   0.055528998011769   0.124790831733215   1.0000000
N2   N   0.111064138455246   0.722198735894288   0.625134787597475   1.0000000
N2   N   0.444437825681205   0.722231857680767   0.625077793853626   1.0000000
N2   N   0.277585310008191   0.222123450132136   0.624944740976008   1.0000000
N2   N   0.777697239729140   0.722209879492826   0.625228989995775   1.0000000
N2   N   0.611077912173727   0.222154272229061   0.625299593632104   1.0000000
N2   N   0.944338795766194   0.222163018334272   0.625182985448821   1.0000000
N2   N   0.277761763849014   0.722210219752549   0.124895129445030   1.0000000
N2   N   0.110946806729888   0.222140070031608   0.124932252788271   1.0000000
N2   N   0.444408607348861   0.222181583698268   0.124963406179766   1.0000000
N2   N   0.611077912173727   0.722256973277992   0.124700406367894   1.0000000
N2   N   0.944365774403754   0.722191309190618   0.124873467137490   1.0000000
N2   N   0.777722685743899   0.222165195020799   0.124782955892247   1.0000000
N2   N   0.111054649417427   0.888872144630026   0.625112423896470   1.0000000
N2   N   0.444443739593625   0.888888536463479   0.625135967298207   1.0000000
N2   N   0.277585310008191   0.388795193209384   0.624944740976008   1.0000000
N2   N   0.611047201675622   0.388796587933110   0.625439111691558   1.0000000
N2   N   0.777722685743899   0.888890824056429   0.625217044107751   1.0000000
N2   N   0.944358957802552   0.388832894932650   0.625150913677801   1.0000000
N2   N   0.110995354102377   0.388826047578531   0.124947989644823   1.0000000
N2   N   0.277761763849014   0.888884877429794   0.124895129445030   1.0000000
N2   N   0.611095124170146   0.888903207120121   0.124809589495859   1.0000000
N2   N   0.444143035082833   0.388738184208079   0.123745727429797   1.0000000
N2   N   0.944358957802552   0.888859396203228   0.124849086322199   1.0000000
N2   N   0.777697239729140   0.388820693569643   0.124771010004225   1.0000000
N2   N   0.277733627612070   0.555527807202609   0.624932501161529   1.0000000
N2   N   0.110995354102377   0.055502639857174   0.625052010355176   1.0000000
N2   N   0.611047201675622   0.555583947075838   0.625439111691558   1.0000000
N2   N   0.444437825681205   0.055539301333773   0.625077793853626   1.0000000
N2   N   0.944365774403754   0.555507798546470   0.625126532862511   1.0000000
N2   N   0.111054649417427   0.555515838120731   0.124887576103531   1.0000000
N2   N   0.777724662690204   0.055528998011769   0.625209168266785   1.0000000
N2   N   0.277733627612070   0.055539153742794   0.125067498838470   1.0000000
N2   N   0.444408607348861   0.555560356983925   0.124963406179766   1.0000000
N2   N   0.777685971513757   0.555509652423548   0.124898923645693   1.0000000
N2   N   0.611095124170146   0.055525250383352   0.124809589495859   1.0000000
N2   N   0.444408607348861   0.555560356983925   0.625036593820233   1.0000000
N2   N   0.944338795766194   0.055509110765258   0.124817014551181   1.0000000
N2   N   0.277761763849014   0.722210219752549   0.625104870554970   1.0000000
N2   N   0.110946806729888   0.222140070031608   0.625067747211728   1.0000000
N2   N   0.444408607348861   0.222181583698268   0.625036593820233   1.0000000
N2   N   0.611077912173727   0.722256973277992   0.625299593632104   1.0000000
N2   N   0.944365774403754   0.722191309190618   0.625126532862511   1.0000000
N2   N   0.777722685743899   0.222165195020799   0.625217044107751   1.0000000
N2   N   0.111064138455246   0.722198735894288   0.124865212402524   1.0000000
N2   N   0.444437825681205   0.722231857680767   0.124922206146371   1.0000000
N2   N   0.277585310008191   0.222123450132136   0.125055259023992   1.0000000
N2   N   0.777697239729140   0.722209879492826   0.124771010004225   1.0000000
N2   N   0.611077912173727   0.222154272229061   0.124700406367894   1.0000000
N2   N   0.944338795766194   0.222163018334272   0.124817014551181   1.0000000
N2   N   0.110995354102377   0.388826047578531   0.625052010355176   1.0000000
N2   N   0.277761763849014   0.888884877429794   0.625104870554970   1.0000000
N2   N   0.611095124170146   0.888903207120121   0.625190410504141   1.0000000
N2   N   0.444143035082833   0.388738184208079   0.626254272570202   1.0000000
N2   N   0.944358957802552   0.888859396203228   0.625150913677801   1.0000000
N2   N   0.111054649417427   0.888872144630026   0.124887576103531   1.0000000
N2   N   0.777697239729140   0.388820693569643   0.625228989995775   1.0000000
N2   N   0.444443739593625   0.888888536463479   0.124864032701793   1.0000000
N2   N   0.277585310008191   0.388795193209384   0.125055259023992   1.0000000
N2   N   0.277733627612070   0.555527807202609   0.125067498838470   1.0000000
N2   N   0.611047201675622   0.388796587933110   0.124560888308442   1.0000000
N2   N   0.777722685743899   0.888890824056429   0.124782955892247   1.0000000
N2   N   0.944358957802552   0.388832894932650   0.124849086322199   1.0000000
N2   N   0.111054649417427   0.555515838120731   0.625112423896470   1.0000000
N2   N   0.277733627612070   0.055539153742794   0.624932501161529   1.0000000
N2   N   0.777685971513757   0.555509652423548   0.625101076354309   1.0000000
N2   N   0.611095124170146   0.055525250383352   0.625190410504141   1.0000000
N2   N   0.944338795766194   0.055509110765258   0.625182985448821   1.0000000
N2   N   0.054933773217112   0.110700238079047   0.375000000000000   1.0000000
N2   N   0.555602011788737   0.619173536624460   0.375000000000000   1.0000000
N2   N   0.386340313978483   0.103559662108324   0.375000000000000   1.0000000
N2   N   0.887478883002296   0.610406108167821   0.375000000000000   1.0000000
N2   N   0.722189145280615   0.110220085757279   0.375000000000000   1.0000000
N2   N   0.055561277537751   0.777777316626830   0.875000000000000   1.0000000
N2   N   0.388883845002169   0.777777871754634   0.875000000000000   1.0000000
N2   N   0.222229682884873   0.277781508109104   0.875000000000000   1.0000000
N2   N   0.722226355184003   0.777771327438082   0.875000000000000   1.0000000
N2   N   0.555553868348308   0.277781316357301   0.875000000000000   1.0000000
N2   N   0.888898698079079   0.277790598889626   0.875000000000000   1.0000000
N2   N   0.219585985479523   0.776459659406430   0.375000000000000   1.0000000
N2   N   0.054933773217112   0.277566868471402   0.375000000000000   1.0000000
N2   N   0.382313487926419   0.262486919999855   0.375000000000000   1.0000000
N2   N   0.554651922721096   0.781092328702197   0.375000000000000   1.0000000
N2   N   0.889232275327086   0.778856325230303   0.375000000000000   1.0000000
N2   N   0.722836018831243   0.275731156094324   0.375000000000000   1.0000000
N2   N   0.055559762807615   0.944438087687011   0.875000000000000   1.0000000
N2   N   0.388883845002169   0.944439306580870   0.875000000000000   1.0000000
N2   N   0.222223497877037   0.444453942002349   0.875000000000000   1.0000000
N2   N   0.555561434474083   0.444447383903706   0.875000000000000   1.0000000
N2   N   0.722223284976889   0.944441430160693   0.875000000000000   1.0000000
N2   N   0.888900215514644   0.444457515500798   0.875000000000000   1.0000000
N2   N   0.053733203644934   0.444315612521410   0.375000000000000   1.0000000
N2   N   0.219448169375699   0.941310846105971   0.375000000000000   1.0000000
N2   N   0.554511676928385   0.943922505130855   0.375000000000000   1.0000000
N2   N   0.382313487926419   0.453159901259900   0.375000000000000   1.0000000
N2   N   0.888914746156976   0.945124198391787   0.375000000000000   1.0000000
N2   N   0.725245606124097   0.442972144028957   0.375000000000000   1.0000000
N2   N   0.222218005546514   0.611117030387312   0.875000000000000   1.0000000
N2   N   0.055565515153836   0.111110992872170   0.875000000000000   1.0000000
N2   N   0.555553868348308   0.611105885324339   0.875000000000000   1.0000000
N2   N   0.388882881671691   0.111102957831871   0.875000000000000   1.0000000
N2   N   0.888906045336959   0.611119689335151   0.875000000000000   1.0000000
N2   N   0.053439507151554   0.610446497159179   0.375000000000000   1.0000000
N2   N   0.722223284976889   0.111115188149532   0.875000000000000   1.0000000
N2   N   0.218042570371902   0.106121112014927   0.375000000000000   1.0000000
N2   N   0.386340313978483   0.616113985203499   0.375000000000000   1.0000000
N2   N   0.725245606124097   0.615606795428481   0.375000000000000   1.0000000
N2   N   0.554651922721096   0.106892927352235   0.375000000000000   1.0000000
N2   N   0.388882881671691   0.611113257173165   0.875000000000000   1.0000000
N2   N   0.888850495066829   0.111091914200085   0.375000000000000   1.0000000
N2   N   0.222219518502504   0.777776425917923   0.875000000000000   1.0000000
N2   N   0.055565515153836   0.277787855615002   0.875000000000000   1.0000000
N2   N   0.388888438089827   0.277770560029151   0.875000000000000   1.0000000
N2   N   0.555550202410572   0.777772487836586   0.875000000000000   1.0000000
N2   N   0.888900215514644   0.777776033347182   0.875000000000000   1.0000000
N2   N   0.722226355184003   0.277788361079257   0.875000000000000   1.0000000
N2   N   0.053439507151554   0.776326343325713   0.375000000000000   1.0000000
N2   N   0.386608062887937   0.778565752194813   0.375000000000000   1.0000000
N2   N   0.221658075629636   0.277495704481485   0.375000000000000   1.0000000
N2   N   0.722836018831243   0.780438196070256   0.375000000000000   1.0000000
N2   N   0.555602011788737   0.269761808497613   0.375000000000000   1.0000000
N2   N   0.888914746156976   0.277123881098526   0.375000000000000   1.0000000
N2   N   0.055559762807615   0.444455008453935   0.875000000000000   1.0000000
N2   N   0.222218005546514   0.944434308492539   0.875000000000000   1.0000000
N2   N   0.555549846790309   0.944441590061820   0.875000000000000   1.0000000
N2   N   0.388888438089827   0.444451211394014   0.875000000000000   1.0000000
N2   N   0.888898698079079   0.944441432522787   0.875000000000000   1.0000000
N2   N   0.053733203644934   0.942750924456853   0.375000000000000   1.0000000
N2   N   0.722234028426669   0.444456654057325   0.875000000000000   1.0000000
N2   N   0.386608062887937   0.941375644026464   0.375000000000000   1.0000000
N2   N   0.218042570371902   0.445254791690312   0.375000000000000   1.0000000
N2   N   0.219448169375699   0.611470656603060   0.375000000000000   1.0000000
N2   N   0.722189145280615   0.945302392856672   0.375000000000000   1.0000000
N2   N   0.889232275327086   0.443709283430117   0.375000000000000   1.0000000
N2   N   0.055561277537751   0.611117294244255   0.875000000000000   1.0000000
N2   N   0.222223497877037   0.111102889208024   0.875000000000000   1.0000000
N2   N   0.722234028426669   0.611110707702681   0.875000000000000   1.0000000
N2   N   0.555550202410572   0.111111047907324   0.875000000000000   1.0000000
N2   N   0.888898934855769   0.111116134094556   0.875000000000000   1.0000000
B2   B   0.109479710680978   0.053815083772522   0.375000000000000   1.0000000
B2   B   0.615146108578832   0.568271470510030   0.375000000000000   1.0000000
B2   B   0.442843624084361   0.051658617109725   0.375000000000000   1.0000000
B2   B   0.942803159512359   0.554692149634179   0.375000000000000   1.0000000
B2   B   0.778136754704379   0.055735044018857   0.375000000000000   1.0000000
B2   B   0.111119715948721   0.722226524641025   0.875000000000000   1.0000000
B2   B   0.444416098940455   0.722135906825261   0.875000000000000   1.0000000
B2   B   0.277874287503480   0.222305692112875   0.875000000000000   1.0000000
B2   B   0.777725045023317   0.722144219512062   0.875000000000000   1.0000000
B2   B   0.611047853025084   0.222280204676242   0.875000000000000   1.0000000
B2   B   0.944514637722515   0.222263020090748   0.875000000000000   1.0000000
B2   B   0.275577826064642   0.721837982290229   0.375000000000000   1.0000000
B2   B   0.112726540473733   0.223029936903531   0.375000000000000   1.0000000
B2   B   0.439826992269950   0.215447821490397   0.375000000000000   1.0000000
B2   B   0.610803261698229   0.726768772667239   0.375000000000000   1.0000000
B2   B   0.942803159512359   0.721444343211514   0.375000000000000   1.0000000
B2   B   0.778129661942551   0.221142441746686   0.375000000000000   1.0000000
B2   B   0.111141136688163   0.888924022298366   0.875000000000000   1.0000000
B2   B   0.444419768746103   0.888876551039715   0.875000000000000   1.0000000
B2   B   0.277874287503480   0.388901928723933   0.875000000000000   1.0000000
B2   B   0.611016256304465   0.388906625947875   0.875000000000000   1.0000000
B2   B   0.777768246188100   0.888841979056497   0.875000000000000   1.0000000
B2   B   0.944468318924094   0.388914131549443   0.875000000000000   1.0000000
B2   B   0.109479710680978   0.388997960241784   0.375000000000000   1.0000000
B2   B   0.275577826064642   0.887073177107742   0.375000000000000   1.0000000
B2   B   0.610836800892912   0.890212004876181   0.375000000000000   1.0000000
B2   B   0.943967887007994   0.889139184202653   0.375000000000000   1.0000000
B2   B   0.778992935512172   0.387170097744282   0.375000000000000   1.0000000
B2   B   0.277813591023813   0.555512413914058   0.875000000000000   1.0000000
B2   B   0.111200574828127   0.055622239730555   0.875000000000000   1.0000000
B2   B   0.611016256304465   0.555442963689918   0.875000000000000   1.0000000
B2   B   0.444416098940455   0.055613525448528   0.875000000000000   1.0000000
B2   B   0.944432069571330   0.555556780228188   0.875000000000000   1.0000000
B2   B   0.109097345245324   0.555153107127468   0.375000000000000   1.0000000
B2   B   0.777789504009646   0.055561418671491   0.875000000000000   1.0000000
B2   B   0.275538124867998   0.052743878470394   0.375000000000000   1.0000000
B2   B   0.439826992269950   0.557712504112889   0.375000000000000   1.0000000
B2   B   0.776015202563912   0.554674267948625   0.375000000000000   1.0000000
B2   B   0.610836800892912   0.053958129350058   0.375000000000000   1.0000000
B2   B   0.444418198513518   0.555448896469279   0.875000000000000   1.0000000
B2   B   0.944970663880036   0.056159184504791   0.375000000000000   1.0000000
B2   B   0.277782584828892   0.722198057628835   0.875000000000000   1.0000000
B2   B   0.111238698956800   0.222286016145064   0.875000000000000   1.0000000
B2   B   0.444418198513518   0.222302635377576   0.875000000000000   1.0000000
B2   B   0.611047853025084   0.722100981682170   0.875000000000000   1.0000000
B2   B   0.944432069571330   0.722208622676479   0.875000000000000   1.0000000
B2   B   0.777768246188100   0.222259600464931   0.875000000000000   1.0000000
B2   B   0.108934492999556   0.721133913166442   0.375000000000000   1.0000000
B2   B   0.442843624084361   0.724518340307971   0.375000000000000   1.0000000
B2   B   0.278169394342422   0.219677562335961   0.375000000000000   1.0000000
B2   B   0.778992935512172   0.725156171101219   0.375000000000000   1.0000000
B2   B   0.610803261698229   0.217367822364318   0.375000000000000   1.0000000
B2   B   0.944970663880036   0.222144812708581   0.375000000000000   1.0000000
B2   B   0.111200574828127   0.388911668430901   0.875000000000000   1.0000000
B2   B   0.277782584828892   0.888917860533386   0.875000000000000   1.0000000
B2   B   0.611077260257133   0.888835305685220   0.875000000000000   1.0000000
B2   B   0.444438809131099   0.388886071232214   0.875000000000000   1.0000000
B2   B   0.944468318924094   0.888887520707975   0.875000000000000   1.0000000
B2   B   0.109097345245324   0.887277571451187   0.375000000000000   1.0000000
B2   B   0.777725045023317   0.388914158844586   0.875000000000000   1.0000000
B2   B   0.443056544353952   0.888194938843644   0.375000000000000   1.0000000
B2   B   0.278169394342422   0.391825165339792   0.375000000000000   1.0000000
B2   B   0.275538124867998   0.556127579730938   0.375000000000000   1.0000000
B2   B   0.615146108578832   0.380207971402133   0.375000000000000   1.0000000
B2   B   0.778129661942551   0.890320553529194   0.375000000000000   1.0000000
B2   B   0.943967887007994   0.388162036138671   0.375000000000000   1.0000000
B2   B   0.111141136688163   0.555550447723124   0.875000000000000   1.0000000
B2   B   0.277813591023813   0.055634510443093   0.875000000000000   1.0000000
B2   B   0.777707812734588   0.555520573033960   0.875000000000000   1.0000000
B2   B   0.611077260257133   0.055575287905242   0.875000000000000   1.0000000
B2   B   0.944514637722515   0.055584950965100   0.875000000000000   1.0000000
B2   B   0.055627899023521   0.111218245963837   0.125462821703050   1.0000000
B2   B   0.555306955513334   0.610797003849043   0.125690565150409   1.0000000
B2   B   0.388958113049864   0.111447193628523   0.125877634767951   1.0000000
B2   B   0.888599000501133   0.610966166917238   0.125223953704371   1.0000000
B2   B   0.722155323681418   0.111089751562356   0.125153461212350   1.0000000
B2   B   0.055496591987026   0.777808823656333   0.624807904035376   1.0000000
B2   B   0.388943955457816   0.777698347545858   0.624682056433845   1.0000000
B2   B   0.222384710113732   0.277859021723534   0.623756826164666   1.0000000
B2   B   0.722013317022544   0.777637544753821   0.624812640916364   1.0000000
B2   B   0.555306955513334   0.277843284997626   0.624309434849591   1.0000000
B2   B   0.888823804589029   0.277705060697210   0.624811220970978   1.0000000
B2   B   0.222271200738135   0.777802267035733   0.125219368177852   1.0000000
B2   B   0.055627899023521   0.277742986393020   0.125462821703050   1.0000000
B2   B   0.388857686777795   0.278023074906556   0.126977984010165   1.0000000
B2   B   0.555491387918766   0.777630349812440   0.125315251722898   1.0000000
B2   B   0.888687159933852   0.777709452508946   0.125179274524366   1.0000000
B2   B   0.722013317022544   0.277709105602058   0.125187359083636   1.0000000
B2   B   0.055569995362450   0.944582935774005   0.624681740100673   1.0000000
B2   B   0.388943955457816   0.944578941245295   0.624682056433845   1.0000000
B2   B   0.222366078940923   0.444268715345279   0.624036916327215   1.0000000
B2   B   0.554953971852037   0.444143652592683   0.622651502810542   1.0000000
B2   B   0.722155323681418   0.944398905452394   0.624846538787649   1.0000000
B2   B   0.888687159933852   0.444311040758239   0.624820725475636   1.0000000
B2   B   0.055569995362450   0.444320392921774   0.125318259899328   1.0000000
B2   B   0.222310896707787   0.944678864930153   0.125404928940046   1.0000000
B2   B   0.555543096362326   0.944438214847825   0.125209228031085   1.0000000
B2   B   0.388857686777795   0.444167945204574   0.126977984010165   1.0000000
B2   B   0.888823804589029   0.944452077225155   0.125188779029019   1.0000000
B2   B   0.721735988101501   0.444232253499642   0.125359440320726   1.0000000
B2   B   0.222310896707787   0.610965365110971   0.624595071059958   1.0000000
B2   B   0.055627899023521   0.111218245963837   0.624537178296948   1.0000000
B2   B   0.555306955513334   0.610797003849043   0.624309434849591   1.0000000
B2   B   0.388958113049864   0.111447193628523   0.624122365232048   1.0000000
B2   B   0.888599000501133   0.610966166917238   0.624776046295628   1.0000000
B2   B   0.055496591987026   0.611021101664028   0.125192095964623   1.0000000
B2   B   0.722155323681418   0.111089751562356   0.624846538787649   1.0000000
B2   B   0.222366078940923   0.111430696928979   0.125963083672784   1.0000000
B2   B   0.388958113049864   0.610844252754684   0.125877634767951   1.0000000
B2   B   0.721735988101501   0.610837067935194   0.125359440320726   1.0000000
B2   B   0.555491387918766   0.111194371439663   0.125315251722898   1.0000000
B2   B   0.388958113049864   0.610844252754684   0.624122365232048   1.0000000
B2   B   0.888876636194797   0.111104984764069   0.125189190838359   1.0000000
B2   B   0.222271200738135   0.777802267035733   0.624780631822148   1.0000000
B2   B   0.055627899023521   0.277742986393020   0.624537178296948   1.0000000
B2   B   0.388857686777795   0.278023074906556   0.623022015989835   1.0000000
B2   B   0.555491387918766   0.777630349812440   0.624684748277102   1.0000000
B2   B   0.888687159933852   0.777709452508946   0.624820725475636   1.0000000
B2   B   0.722013317022544   0.277709105602058   0.624812640916364   1.0000000
B2   B   0.055496591987026   0.777808823656333   0.125192095964623   1.0000000
B2   B   0.388943955457816   0.777698347545858   0.125317943566155   1.0000000
B2   B   0.222384710113732   0.277859021723534   0.126243173835334   1.0000000
B2   B   0.722013317022544   0.777637544753821   0.125187359083636   1.0000000
B2   B   0.555306955513334   0.277843284997626   0.125690565150409   1.0000000
B2   B   0.888823804589029   0.277705060697210   0.125188779029019   1.0000000
B2   B   0.055569995362450   0.444320392921774   0.624681740100673   1.0000000
B2   B   0.222310896707787   0.944678864930153   0.624595071059958   1.0000000
B2   B   0.555543096362326   0.944438214847825   0.624790771968917   1.0000000
B2   B   0.388857686777795   0.444167945204574   0.623022015989835   1.0000000
B2   B   0.888823804589029   0.944452077225155   0.624811220970978   1.0000000
B2   B   0.055569995362450   0.944582935774005   0.125318259899328   1.0000000
B2   B   0.721735988101501   0.444232253499642   0.624640559679275   1.0000000
B2   B   0.388943955457816   0.944578941245295   0.125317943566155   1.0000000
B2   B   0.222366078940923   0.444268715345279   0.125963083672784   1.0000000
B2   B   0.222310896707787   0.610965365110971   0.125404928940046   1.0000000
B2   B   0.554953971852037   0.444143652592683   0.127348497189458   1.0000000
B2   B   0.722155323681418   0.944398905452394   0.125153461212350   1.0000000
B2   B   0.888687159933852   0.444311040758239   0.125179274524366   1.0000000
B2   B   0.055496591987026   0.611021101664028   0.624807904035376   1.0000000
B2   B   0.222366078940923   0.111430696928979   0.624036916327215   1.0000000
B2   B   0.721735988101501   0.610837067935194   0.624640559679275   1.0000000
B2   B   0.555491387918766   0.111194371439663   0.624684748277102   1.0000000
B2   B   0.888876636194797   0.111104984764069   0.624810809161641   1.0000000


