data_1
_audit_creation_method   'vasp2cif'
_cell_length_a    14.93631414619966
_cell_length_b    14.936314146199727
_cell_length_c    13.341276283792837
_cell_angle_alpha    90.0
_cell_angle_beta    90.0
_cell_angle_gamma    119.99999999999984

_symmetry_space_group_name_H-M    'P 1'
loop_
_atom_site_label
_atom_site_type_symbol
_atom_site_fract_x
_atom_site_fract_y
_atom_site_fract_z
_atom_site_occupancy
S2   S   0.520591218384707   0.426962275859018   0.375000000000000   1.0000000
N2   N   0.111093689964702   0.055548575382914   0.124907535614086   1.0000000
N2   N   0.611077042926716   0.555559166807197   0.124572143203845   1.0000000
N2   N   0.444472123860173   0.055553048627137   0.124881629469183   1.0000000
N2   N   0.944418677459460   0.555540577180218   0.124916172985336   1.0000000
N2   N   0.777789436171216   0.055561384752276   0.124860762832235   1.0000000
N2   N   0.111107068771210   0.722220201052269   0.625108281738818   1.0000000
N2   N   0.444472123860173   0.722252408566372   0.625118370530816   1.0000000
N2   N   0.277733886135933   0.222197166211392   0.625077323671578   1.0000000
N2   N   0.777745952665937   0.722212995854117   0.625088454963479   1.0000000
N2   N   0.611116184664058   0.222194580453456   0.625183121850218   1.0000000
N2   N   0.944433579663306   0.222215134920222   0.625126669028997   1.0000000
N2   N   0.277795691478982   0.722230465504194   0.124892752514528   1.0000000
N2   N   0.111079232699934   0.222206283016632   0.124905956571104   1.0000000
N2   N   0.444461735137446   0.222199368519493   0.124731729121434   1.0000000
N2   N   0.611116184664058   0.722254937543929   0.124816878149782   1.0000000
N2   N   0.944418677459460   0.722211433612577   0.124916172985336   1.0000000
N2   N   0.777779946864375   0.222210229662102   0.124869532967631   1.0000000
N2   N   0.111106427972355   0.888891848426427   0.625115581125551   1.0000000
N2   N   0.444474894050758   0.888904113692044   0.625116312989493   1.0000000
N2   N   0.277733886135933   0.388870053257869   0.625077323671578   1.0000000
N2   N   0.611077042926716   0.388851209452848   0.625427856796155   1.0000000
N2   N   0.777779946864375   0.888903050535602   0.625130467032369   1.0000000
N2   N   0.944427827471051   0.388877561727575   0.625107212023880   1.0000000
N2   N   0.111093689964702   0.388878447915117   0.124907535614086   1.0000000
N2   N   0.277795691478982   0.888898559308116   0.124892752514528   1.0000000
N2   N   0.611136412488728   0.888917074342753   0.124856484723707   1.0000000
N2   N   0.444341462489212   0.388837397911271   0.123575748209228   1.0000000
N2   N   0.944427827471051   0.888883599076804   0.124892787976121   1.0000000
N2   N   0.777745952665937   0.388866290145148   0.124911545036521   1.0000000
N2   N   0.277786794268525   0.555561990917578   0.625079435137474   1.0000000
N2   N   0.111093689964702   0.055548575382914   0.625092464385914   1.0000000
N2   N   0.611077042926716   0.555559166807197   0.625427856796155   1.0000000
N2   N   0.444472123860173   0.055553048627137   0.625118370530816   1.0000000
N2   N   0.944418677459460   0.555540577180218   0.625083827014664   1.0000000
N2   N   0.111106427972355   0.555547912879258   0.124884418874449   1.0000000
N2   N   0.777789436171216   0.055561384752276   0.625139237167764   1.0000000
N2   N   0.277786794268525   0.055558136684283   0.124920564862527   1.0000000
N2   N   0.444461735137446   0.555595699951289   0.124731729121434   1.0000000
N2   N   0.777730077755981   0.555531705544657   0.124950706617492   1.0000000
N2   N   0.611136412488728   0.055552671479305   0.124856484723707   1.0000000
N2   N   0.444461735137446   0.555595699951289   0.625268270878566   1.0000000
N2   N   0.944433579663306   0.055551778076420   0.124873330971003   1.0000000
N2   N   0.277795691478982   0.722230465504194   0.625107247485472   1.0000000
N2   N   0.111079232699934   0.222206283016632   0.625094043428896   1.0000000
N2   N   0.444461735137446   0.222199368519493   0.625268270878566   1.0000000
N2   N   0.611116184664058   0.722254937543929   0.625183121850218   1.0000000
N2   N   0.944418677459460   0.722211433612577   0.625083827014664   1.0000000
N2   N   0.777779946864375   0.222210229662102   0.625130467032369   1.0000000
N2   N   0.111107068771210   0.722220201052269   0.124891718261183   1.0000000
N2   N   0.444472123860173   0.722252408566372   0.124881629469183   1.0000000
N2   N   0.277733886135933   0.222197166211392   0.124922676328422   1.0000000
N2   N   0.777745952665937   0.722212995854117   0.124911545036521   1.0000000
N2   N   0.611116184664058   0.222194580453456   0.124816878149782   1.0000000
N2   N   0.944433579663306   0.222215134920222   0.124873330971003   1.0000000
N2   N   0.111093689964702   0.388878447915117   0.625092464385914   1.0000000
N2   N   0.277795691478982   0.888898559308116   0.625107247485472   1.0000000
N2   N   0.611136412488728   0.888917074342753   0.625143515276294   1.0000000
N2   N   0.444341462489212   0.388837397911271   0.626424251790773   1.0000000
N2   N   0.944427827471051   0.888883599076804   0.625107212023880   1.0000000
N2   N   0.111106427972355   0.888891848426427   0.124884418874449   1.0000000
N2   N   0.777745952665937   0.388866290145148   0.625088454963479   1.0000000
N2   N   0.444474894050758   0.888904113692044   0.124883687010507   1.0000000
N2   N   0.277733886135933   0.388870053257869   0.124922676328422   1.0000000
N2   N   0.277786794268525   0.555561990917578   0.124920564862527   1.0000000
N2   N   0.611077042926716   0.388851209452848   0.124572143203845   1.0000000
N2   N   0.777779946864375   0.888903050535602   0.124869532967631   1.0000000
N2   N   0.944427827471051   0.388877561727575   0.124892787976121   1.0000000
N2   N   0.111106427972355   0.555547912879258   0.625115581125551   1.0000000
N2   N   0.277786794268525   0.055558136684283   0.625079435137474   1.0000000
N2   N   0.777730077755981   0.555531705544657   0.625049293382508   1.0000000
N2   N   0.611136412488728   0.055552671479305   0.625143515276294   1.0000000
N2   N   0.944433579663306   0.055551778076420   0.625126669028997   1.0000000
N2   N   0.058303601951971   0.112610787404827   0.375000000000000   1.0000000
N2   N   0.556236420712255   0.618681319618000   0.375000000000000   1.0000000
N2   N   0.388276496483292   0.105595271383933   0.375000000000000   1.0000000
N2   N   0.886203277251705   0.609768305292524   0.375000000000000   1.0000000
N2   N   0.724078691501152   0.111303083752973   0.375000000000000   1.0000000
N2   N   0.055548030460967   0.777772801308013   0.875000000000000   1.0000000
N2   N   0.388877508803510   0.777774242584330   0.875000000000000   1.0000000
N2   N   0.222213431914892   0.277773382624114   0.875000000000000   1.0000000
N2   N   0.722217328353218   0.777772716288640   0.875000000000000   1.0000000
N2   N   0.555547055698339   0.277774967655312   0.875000000000000   1.0000000
N2   N   0.888886872047453   0.277780789011923   0.875000000000000   1.0000000
N2   N   0.220708617589321   0.777020975461329   0.375000000000000   1.0000000
N2   N   0.058303601951971   0.279026147880479   0.375000000000000   1.0000000
N2   N   0.390867325436515   0.270100448939616   0.375000000000000   1.0000000
N2   N   0.556243650255331   0.781404853813510   0.375000000000000   1.0000000
N2   N   0.888432353390695   0.777878219647441   0.375000000000000   1.0000000
N2   N   0.723624274567863   0.276601427432705   0.375000000000000   1.0000000
N2   N   0.055548383710074   0.944436396256235   0.875000000000000   1.0000000
N2   N   0.388877508803510   0.944436599552515   0.875000000000000   1.0000000
N2   N   0.222210935741085   0.444444232302815   0.875000000000000   1.0000000
N2   N   0.555552438450297   0.444442885891813   0.875000000000000   1.0000000
N2   N   0.722214662311410   0.944439572937966   0.875000000000000   1.0000000
N2   N   0.888887794439211   0.444446351507229   0.875000000000000   1.0000000
N2   N   0.055848481637190   0.444883240489311   0.375000000000000   1.0000000
N2   N   0.221037595307390   0.942519398387160   0.375000000000000   1.0000000
N2   N   0.556229656472917   0.944781494903123   0.375000000000000   1.0000000
N2   N   0.390867325436515   0.454100209830235   0.375000000000000   1.0000000
N2   N   0.890814252056459   0.945991713934768   0.375000000000000   1.0000000
N2   N   0.720335738079959   0.442217949995634   0.375000000000000   1.0000000
N2   N   0.222209575463810   0.611109938727466   0.875000000000000   1.0000000
N2   N   0.055549460291987   0.111105121085131   0.875000000000000   1.0000000
N2   N   0.555547055698339   0.611105421376363   0.875000000000000   1.0000000
N2   N   0.388876320672072   0.111100867895555   0.875000000000000   1.0000000
N2   N   0.888889483703560   0.611111408518451   0.875000000000000   1.0000000
N2   N   0.053849749444835   0.610575390003404   0.375000000000000   1.0000000
N2   N   0.722214662311410   0.111108422706780   0.875000000000000   1.0000000
N2   N   0.223259126188006   0.110306446097588   0.375000000000000   1.0000000
N2   N   0.388276496483292   0.616014558432703   0.375000000000000   1.0000000
N2   N   0.720335738079959   0.611451121417663   0.375000000000000   1.0000000
N2   N   0.556243650255331   0.108172129775157   0.375000000000000   1.0000000
N2   N   0.388876320672072   0.611108786109860   0.875000000000000   1.0000000
N2   N   0.891404739987696   0.112369036660519   0.375000000000000   1.0000000
N2   N   0.222209892017483   0.777771612675409   0.875000000000000   1.0000000
N2   N   0.055549460291987   0.277777672540191   0.875000000000000   1.0000000
N2   N   0.388877602320434   0.277767566596052   0.875000000000000   1.0000000
N2   N   0.555544531562866   0.777772364273949   0.875000000000000   1.0000000
N2   N   0.888887794439211   0.777774776265317   0.875000000000000   1.0000000
N2   N   0.722217328353218   0.277777945397915   0.875000000000000   1.0000000
N2   N   0.053849749444835   0.776607692774767   0.375000000000000   1.0000000
N2   N   0.388189361516428   0.779042180931510   0.375000000000000   1.0000000
N2   N   0.226526820019243   0.279930076676289   0.375000000000000   1.0000000
N2   N   0.723624274567863   0.780356180468495   0.375000000000000   1.0000000
N2   N   0.556236420712255   0.270888434427590   0.375000000000000   1.0000000
N2   N   0.890814252056459   0.278155871455027   0.375000000000000   1.0000000
N2   N   0.055548383710074   0.444445320787168   0.875000000000000   1.0000000
N2   N   0.222209575463810   0.944432970069679   0.875000000000000   1.0000000
N2   N   0.555543753171008   0.944438543252168   0.875000000000000   1.0000000
N2   N   0.388877602320434   0.444443369057719   0.875000000000000   1.0000000
N2   N   0.888886872047453   0.944439416368866   0.875000000000000   1.0000000
N2   N   0.055848481637190   0.944298574481206   0.375000000000000   1.0000000
N2   N   0.722221230016826   0.444445823958782   0.875000000000000   1.0000000
N2   N   0.388189361516428   0.942480513918255   0.375000000000000   1.0000000
N2   N   0.223259126188006   0.446286013423753   0.375000000000000   1.0000000
N2   N   0.221037595307390   0.611851530253566   0.375000000000000   1.0000000
N2   N   0.724078691501152   0.946108941081514   0.375000000000000   1.0000000
N2   N   0.888432353390695   0.443887467076589   0.375000000000000   1.0000000
N2   N   0.055548030460967   0.611108562486291   0.875000000000000   1.0000000
N2   N   0.222210935741085   0.111100036771605   0.875000000000000   1.0000000
N2   N   0.722221230016826   0.611108739391381   0.875000000000000   1.0000000
N2   N   0.555544531562866   0.111105500622253   0.875000000000000   1.0000000
N2   N   0.888885433379389   0.111109383356366   0.875000000000000   1.0000000
B2   B   0.113093080012607   0.056119226805629   0.375000000000000   1.0000000
B2   B   0.609053864233735   0.562488313051042   0.375000000000000   1.0000000
B2   B   0.444600496451759   0.052739227786487   0.375000000000000   1.0000000
B2   B   0.942710723147909   0.554884391799940   0.375000000000000   1.0000000
B2   B   0.780314522491131   0.056823927912233   0.375000000000000   1.0000000
B2   B   0.111107651941697   0.722220492637512   0.875000000000000   1.0000000
B2   B   0.444416576476121   0.722170364421082   0.875000000000000   1.0000000
B2   B   0.277817425584175   0.222261414461918   0.875000000000000   1.0000000
B2   B   0.777745121158561   0.722183391502708   0.875000000000000   1.0000000
B2   B   0.611066190710944   0.222244206400845   0.875000000000000   1.0000000
B2   B   0.944475442812001   0.222239566288607   0.875000000000000   1.0000000
B2   B   0.276938499465815   0.722468502694337   0.375000000000000   1.0000000
B2   B   0.116025126059851   0.224679229696590   0.375000000000000   1.0000000
B2   B   0.443348715606332   0.216492639893988   0.375000000000000   1.0000000
B2   B   0.612367066586895   0.727275971437813   0.375000000000000   1.0000000
B2   B   0.942710723147909   0.721159664681304   0.375000000000000   1.0000000
B2   B   0.779857590155380   0.222228703871570   0.375000000000000   1.0000000
B2   B   0.111120859338767   0.888905472179524   0.875000000000000   1.0000000
B2   B   0.444420289005399   0.888876811169364   0.875000000000000   1.0000000
B2   B   0.277817425584175   0.388889344455586   0.875000000000000   1.0000000
B2   B   0.611048278800233   0.388888767481417   0.875000000000000   1.0000000
B2   B   0.777767326547070   0.888865342755019   0.875000000000000   1.0000000
B2   B   0.944454255504406   0.388898397425919   0.875000000000000   1.0000000
B2   B   0.113093080012607   0.390307186540307   0.375000000000000   1.0000000
B2   B   0.276938499465815   0.887803330104807   0.375000000000000   1.0000000
B2   B   0.612672239022577   0.891055188895466   0.375000000000000   1.0000000
B2   B   0.945082789837627   0.889297594589277   0.375000000000000   1.0000000
B2   B   0.777321211455093   0.387691545809957   0.375000000000000   1.0000000
B2   B   0.277785890731457   0.555526684866072   0.875000000000000   1.0000000
B2   B   0.111150912793205   0.055588356641229   0.875000000000000   1.0000000
B2   B   0.611048278800233   0.555492844652145   0.875000000000000   1.0000000
B2   B   0.444416576476121   0.055579545388375   0.875000000000000   1.0000000
B2   B   0.944432964798642   0.555552420008947   0.875000000000000   1.0000000
B2   B   0.110303579481084   0.555755556334084   0.375000000000000   1.0000000
B2   B   0.777777000701403   0.055555167017369   0.875000000000000   1.0000000
B2   B   0.277650117413192   0.053850334609174   0.375000000000000   1.0000000
B2   B   0.443348715606332   0.560189409045680   0.375000000000000   1.0000000
B2   B   0.774325478231227   0.553829405782281   0.375000000000000   1.0000000
B2   B   0.612672239022577   0.054950383460440   0.375000000000000   1.0000000
B2   B   0.444412703901312   0.555488550121767   0.875000000000000   1.0000000
B2   B   0.947522827878021   0.057357668851234   0.375000000000000   1.0000000
B2   B   0.277770214845841   0.722204743065239   0.875000000000000   1.0000000
B2   B   0.111170786203823   0.222252059768576   0.875000000000000   1.0000000
B2   B   0.444412703901312   0.222257487112881   0.875000000000000   1.0000000
B2   B   0.611066190710944   0.722155317643427   0.875000000000000   1.0000000
B2   B   0.944432964798642   0.722213878123030   0.875000000000000   1.0000000
B2   B   0.777767326547070   0.222235317125380   0.875000000000000   1.0000000
B2   B   0.109659063998734   0.721496198666031   0.375000000000000   1.0000000
B2   B   0.444600496451759   0.725194601998608   0.375000000000000   1.0000000
B2   B   0.283420390216779   0.224011964706128   0.375000000000000   1.0000000
B2   B   0.777321211455093   0.722962998978464   0.375000000000000   1.0000000
B2   B   0.612367066586895   0.218424428482412   0.375000000000000   1.0000000
B2   B   0.947522827878021   0.223498492360122   0.375000000000000   1.0000000
B2   B   0.111150912793205   0.388895889485305   0.875000000000000   1.0000000
B2   B   0.277770214845841   0.888898805113930   0.875000000000000   1.0000000
B2   B   0.611083035097246   0.888857307327597   0.875000000000000   1.0000000
B2   B   0.444420272806713   0.388876803070021   0.875000000000000   1.0000000
B2   B   0.944454255504406   0.888889191411816   0.875000000000000   1.0000000
B2   B   0.110303579481084   0.887881356480329   0.375000000000000   1.0000000
B2   B   0.777745121158561   0.388895062989181   0.875000000000000   1.0000000
B2   B   0.444687041881336   0.889010187607332   0.375000000000000   1.0000000
B2   B   0.283420390216779   0.392741758843980   0.375000000000000   1.0000000
B2   B   0.277650117413192   0.557133116137354   0.375000000000000   1.0000000
B2   B   0.609053864233735   0.379898884516020   0.375000000000000   1.0000000
B2   B   0.779857590155380   0.890962219617140   0.375000000000000   1.0000000
B2   B   0.945082789837627   0.389118528581679   0.375000000000000   1.0000000
B2   B   0.111120859338767   0.555548720492572   0.875000000000000   1.0000000
B2   B   0.277785890731457   0.055592539198720   0.875000000000000   1.0000000
B2   B   0.777735461674197   0.555534397503766   0.875000000000000   1.0000000
B2   B   0.611083035097246   0.055559061102977   0.875000000000000   1.0000000
B2   B   0.944475442812001   0.055569209856730   0.875000000000000   1.0000000
B2   B   0.055655938354443   0.111203485808072   0.125176366481361   1.0000000
B2   B   0.555401146014444   0.610952625727150   0.125139480647605   1.0000000
B2   B   0.388948595031963   0.111296651058712   0.125311042621776   1.0000000
B2   B   0.888767989624958   0.611050661479150   0.125082272264956   1.0000000
B2   B   0.722216802044400   0.111109198593339   0.125026571111769   1.0000000
B2   B   0.055561947442785   0.777814960774069   0.624951874014046   1.0000000
B2   B   0.388940436921081   0.777750937815153   0.624907492613319   1.0000000
B2   B   0.222383698437305   0.277858515885320   0.624449292616631   1.0000000
B2   B   0.722128834999445   0.777723189795518   0.624951221188533   1.0000000
B2   B   0.555401146014444   0.277781853620630   0.624860519352396   1.0000000
B2   B   0.888897176362737   0.277756359529028   0.624948578399839   1.0000000
B2   B   0.222278194971618   0.777805764152478   0.125059317950369   1.0000000
B2   B   0.055655938354443   0.277785785879707   0.125176366481361   1.0000000
B2   B   0.388933394892197   0.277947849251831   0.125774447924069   1.0000000
B2   B   0.555536437265040   0.777721114591804   0.125083424826720   1.0000000
B2   B   0.888816409723944   0.777761662458536   0.125062156895617   1.0000000
B2   B   0.722128834999445   0.277738978537262   0.125048778811468   1.0000000
B2   B   0.055609813443364   0.944547083232327   0.624898972809435   1.0000000
B2   B   0.388940436921081   0.944522832439264   0.624907492613319   1.0000000
B2   B   0.222356056039850   0.444370765272225   0.624585080967355   1.0000000
B2   B   0.555189454931789   0.444261394132559   0.624611449398036   1.0000000
B2   B   0.722216802044400   0.944440936784397   0.624973428888230   1.0000000
B2   B   0.888816409723944   0.444388080598745   0.624937843104384   1.0000000
B2   B   0.055609813443364   0.444396063544365   0.125101027190565   1.0000000
B2   B   0.222304762073248   0.944591819254810   0.125131630109797   1.0000000
B2   B   0.555571255141360   0.944452294237345   0.125044423327596   1.0000000
B2   B   0.388933394892197   0.444318878973702   0.125774447924069   1.0000000
B2   B   0.888897176362737   0.944474150167044   0.125051421600161   1.0000000
B2   B   0.721971020480022   0.444331578304449   0.125053288607644   1.0000000
B2   B   0.222304762073248   0.611046276151774   0.624868369890203   1.0000000
B2   B   0.055655938354443   0.111203485808072   0.624823633518639   1.0000000
B2   B   0.555401146014444   0.610952625727150   0.624860519352396   1.0000000
B2   B   0.388948595031963   0.111296651058712   0.624688957378224   1.0000000
B2   B   0.888767989624958   0.611050661479150   0.624917727735043   1.0000000
B2   B   0.055561947442785   0.611080320002051   0.125048125985954   1.0000000
B2   B   0.722216802044400   0.111109198593339   0.624973428888230   1.0000000
B2   B   0.222356056039850   0.111318624100961   0.125414919032645   1.0000000
B2   B   0.388948595031963   0.610985277306594   0.125311042621776   1.0000000
B2   B   0.721971020480022   0.610972775508910   0.125053288607644   1.0000000
B2   B   0.555536437265040   0.111148656006571   0.125083424826720   1.0000000
B2   B   0.388948595031963   0.610985277306594   0.624688957378224   1.0000000
B2   B   0.888929995354760   0.111131664344052   0.125051736238423   1.0000000
B2   B   0.222278194971618   0.777805764152478   0.624940682049631   1.0000000
B2   B   0.055655938354443   0.277785785879707   0.624823633518639   1.0000000
B2   B   0.388933394892197   0.277947849251831   0.624225552075930   1.0000000
B2   B   0.555536437265040   0.777721114591804   0.624916575173279   1.0000000
B2   B   0.888816409723944   0.777761662458536   0.624937843104384   1.0000000
B2   B   0.722128834999445   0.277738978537262   0.624951221188533   1.0000000
B2   B   0.055561947442785   0.777814960774069   0.125048125985954   1.0000000
B2   B   0.388940436921081   0.777750937815153   0.125092507386680   1.0000000
B2   B   0.222383698437305   0.277858515885320   0.125550707383369   1.0000000
B2   B   0.722128834999445   0.777723189795518   0.125048778811468   1.0000000
B2   B   0.555401146014444   0.277781853620630   0.125139480647605   1.0000000
B2   B   0.888897176362737   0.277756359529028   0.125051421600161   1.0000000
B2   B   0.055609813443364   0.444396063544365   0.624898972809435   1.0000000
B2   B   0.222304762073248   0.944591819254810   0.624868369890203   1.0000000
B2   B   0.555571255141360   0.944452294237345   0.624955576672404   1.0000000
B2   B   0.388933394892197   0.444318878973702   0.624225552075930   1.0000000
B2   B   0.888897176362737   0.944474150167044   0.624948578399839   1.0000000
B2   B   0.055609813443364   0.944547083232327   0.125101027190565   1.0000000
B2   B   0.721971020480022   0.444331578304449   0.624946711392356   1.0000000
B2   B   0.388940436921081   0.944522832439264   0.125092507386680   1.0000000
B2   B   0.222356056039850   0.444370765272225   0.125414919032645   1.0000000
B2   B   0.222304762073248   0.611046276151774   0.125131630109797   1.0000000
B2   B   0.555189454931789   0.444261394132559   0.125388550601963   1.0000000
B2   B   0.722216802044400   0.944440936784397   0.125026571111769   1.0000000
B2   B   0.888816409723944   0.444388080598745   0.125062156895617   1.0000000
B2   B   0.055561947442785   0.611080320002051   0.624951874014046   1.0000000
B2   B   0.222356056039850   0.111318624100961   0.624585080967355   1.0000000
B2   B   0.721971020480022   0.610972775508910   0.624946711392356   1.0000000
B2   B   0.555536437265040   0.111148656006571   0.624916575173279   1.0000000
B2   B   0.888929995354760   0.111131664344052   0.624948263761578   1.0000000


