data_1
_audit_creation_method   'vasp2cif'
_cell_length_a    17.52789999999977
_cell_length_b    17.52789999999977
_cell_length_c    15.0
_cell_angle_alpha    90.0
_cell_angle_beta    90.0
_cell_angle_gamma    119.99999999999916

_symmetry_space_group_name_H-M    'P 1'
loop_
_atom_site_label
_atom_site_type_symbol
_atom_site_fract_x
_atom_site_fract_y
_atom_site_fract_z
_atom_site_occupancy
B2   B   0.904817920679176   0.954267718494910   0.114523175179099   1.0000000
B2   B   0.904349331494534   0.096679950425089   0.115351849193398   1.0000000
B2   B   0.904012072136322   0.238975713015855   0.109943071992603   1.0000000
B2   B   0.903730735962701   0.381225095004687   0.104798873417059   1.0000000
B2   B   0.902755164735016   0.523518582467839   0.104198855711004   1.0000000
B2   B   0.900438745517092   0.665525429266358   0.105845384383112   1.0000000
B2   B   0.902012701497144   0.809184263914808   0.108222074555574   1.0000000
B2   B   0.045378391604641   0.951341980162603   0.113472920949551   1.0000000
B2   B   0.046555052916076   0.095365628482707   0.116746394083066   1.0000000
B2   B   0.046834197107677   0.238690839350243   0.114722590743237   1.0000000
B2   B   0.046835541948751   0.381346119549670   0.110642044184892   1.0000000
B2   B   0.046348579568572   0.523591763392678   0.108166697385551   1.0000000
B2   B   0.044986945956100   0.665692839077185   0.108158042842243   1.0000000
B2   B   0.044534205968779   0.807985294324652   0.108901565839241   1.0000000
B2   B   0.187716352577083   0.950343441697551   0.111593775007471   1.0000000
B2   B   0.187877354513098   0.093186380689780   0.112402804710468   1.0000000
B2   B   0.188418304158839   0.236891438167524   0.111355836680293   1.0000000
B2   B   0.189646540066824   0.380968237750955   0.110751920011575   1.0000000
B2   B   0.190137180310674   0.523502957853451   0.112780167613631   1.0000000
B2   B   0.188978554770650   0.665771981919708   0.113496809682367   1.0000000
B2   B   0.188012951267060   0.807964951267492   0.112183511984115   1.0000000
B2   B   0.330875903394653   0.950468375317608   0.111044046990905   1.0000000
B2   B   0.330382175227347   0.092331860375249   0.106491016304363   1.0000000
B2   B   0.329470272998597   0.233951162068066   0.103031243862036   1.0000000
B2   B   0.330128614783455   0.379734334208816   0.101836634048796   1.0000000
B2   B   0.334737333374238   0.522613321875551   0.111186692587914   1.0000000
B2   B   0.332941436684195   0.665942061286451   0.118921764506982   1.0000000
B2   B   0.331553154134358   0.808442548945283   0.116820940543703   1.0000000
B2   B   0.474327704958560   0.952028795701400   0.112622090164234   1.0000000
B2   B   0.473712898178407   0.093148690219423   0.103720958187004   1.0000000
B2   B   0.473000825676254   0.234011108686042   0.100459587902535   1.0000000
B2   B   0.469772126541617   0.371177367014899   0.096438543189283   1.0000000
B2   B   0.476871386696232   0.669561301349470   0.122837387771945   1.0000000
B2   B   0.475203631467826   0.810865661442041   0.121524704445689   1.0000000
B2   B   0.618088826376356   0.954443858408808   0.116113547471927   1.0000000
B2   B   0.617424790194746   0.095104631558263   0.104693988061852   1.0000000
B2   B   0.616957206064968   0.236072051651320   0.097788978960823   1.0000000
B2   B   0.616333857610411   0.375505310811970   0.112376115614465   1.0000000
B2   B   0.624943309708331   0.679075489750907   0.108672491943907   1.0000000
B2   B   0.619377117767445   0.814393310681353   0.121997733585056   1.0000000
B2   B   0.761939462574289   0.955159740060664   0.116437216637860   1.0000000
B2   B   0.761125263986694   0.096578555033073   0.110312416596613   1.0000000
B2   B   0.760721940280508   0.238234248848679   0.102263094313538   1.0000000
B2   B   0.760513562295632   0.380319327063045   0.102474558191704   1.0000000
B2   B   0.760610351997033   0.523855161952188   0.115713592856359   1.0000000
B2   B   0.754915926550793   0.665991440835063   0.099416192513904   1.0000000
B2   B   0.763740833591466   0.814334141790080   0.112019542347534   1.0000000
Sn2   Sn   0.518044097144073   0.515214554441462   0.100742247226566   1.0000000
N2   N   0.950657812255357   0.904765470612476   0.112405238977195   1.0000000
N2   N   0.952014925697047   0.049104202407475   0.116863854375203   1.0000000
N2   N   0.951716532892089   0.191650851806165   0.114310593712970   1.0000000
N2   N   0.951434723384275   0.333975978913898   0.108349104209444   1.0000000
N2   N   0.950745820955012   0.476217721740762   0.104610775665207   1.0000000
N2   N   0.949201369714512   0.618348429636335   0.105841982473489   1.0000000
N2   N   0.949219776850011   0.760772630111285   0.106242646044303   1.0000000
N2   N   0.092628128017446   0.903272441074323   0.111565493018008   1.0000000
N2   N   0.093210876775513   0.046615038732543   0.115781250268417   1.0000000
N2   N   0.093871335214799   0.190314729691847   0.116104430336108   1.0000000
N2   N   0.094299051672161   0.333659739883581   0.112762642099169   1.0000000
N2   N   0.094380239539563   0.476332187727679   0.110442377001483   1.0000000
N2   N   0.093360064045986   0.618558516692740   0.109644173068183   1.0000000
N2   N   0.092628704598077   0.760700158147541   0.109524910483589   1.0000000
N2   N   0.235666289699459   0.903146440391974   0.111895524886129   1.0000000
N2   N   0.235556727446294   0.045603914380591   0.110654916767539   1.0000000
N2   N   0.235370873676353   0.188168578060254   0.109578002786296   1.0000000
N2   N   0.235566644597416   0.331410464058945   0.107862096191602   1.0000000
N2   N   0.237974045261005   0.476052181709062   0.111502951130892   1.0000000
N2   N   0.237268302140813   0.618683855561388   0.115367620532432   1.0000000
N2   N   0.236154706288665   0.760914843375836   0.114712564624115   1.0000000
N2   N   0.379028949420169   0.903777749310623   0.113910495825333   1.0000000
N2   N   0.378599847333593   0.045680485819199   0.106953073080181   1.0000000
N2   N   0.378218561297587   0.187577454152236   0.102132956666593   1.0000000
N2   N   0.377371973969871   0.328976532919611   0.097305381117297   1.0000000
N2   N   0.378745756151825   0.472333729462529   0.102990191687330   1.0000000
N2   N   0.381296767674472   0.618823739383153   0.119094276395966   1.0000000
N2   N   0.379715076729511   0.761638757661581   0.120570209287232   1.0000000
N2   N   0.522716154949634   0.906033627641729   0.117517266313000   1.0000000
N2   N   0.522083923317874   0.047019709941877   0.106175244348439   1.0000000
N2   N   0.521605239234212   0.188316244386681   0.099288329275815   1.0000000
N2   N   0.521529299273205   0.330081552692039   0.102665901697475   1.0000000
N2   N   0.623301155826618   0.495102662545942   0.192624394838814   1.0000000
N2   N   0.531826826355101   0.631802283815462   0.121485915670122   1.0000000
N2   N   0.523803700336501   0.765324684771119   0.124535913060248   1.0000000
N2   N   0.666786828654536   0.908899337757235   0.119844405628859   1.0000000
N2   N   0.665796432322587   0.049122201872401   0.109815588866814   1.0000000
N2   N   0.665274082926154   0.190084801482092   0.099353998956549   1.0000000
N2   N   0.664827944657940   0.331390964625484   0.099521433824610   1.0000000
N2   N   0.665325427191157   0.468190638963425   0.140234734716573   1.0000000
N2   N   0.662393945312233   0.625943543566124   0.087371932463787   1.0000000
N2   N   0.670400630050103   0.771588010533211   0.117460858189312   1.0000000
N2   N   0.810659714480336   0.908790479433085   0.114437195880166   1.0000000
N2   N   0.809317426053898   0.049969393952579   0.114332624244542   1.0000000
N2   N   0.808708123399266   0.191533930169837   0.106931819666368   1.0000000
N2   N   0.808235739802900   0.333445462922198   0.101878038181151   1.0000000
N2   N   0.806850629797846   0.475495217736091   0.105035419315462   1.0000000
N2   N   0.804102565021569   0.617551060553837   0.107149822167495   1.0000000
N2   N   0.807494759269429   0.762931407038345   0.106079583327806   1.0000000


