data_1
_audit_creation_method   'vasp2cif'
_cell_length_a    14.93631414619966
_cell_length_b    14.936314146199727
_cell_length_c    13.341276283792837
_cell_angle_alpha    90.0
_cell_angle_beta    90.0
_cell_angle_gamma    119.99999999999984

_symmetry_space_group_name_H-M    'P 1'
loop_
_atom_site_label
_atom_site_type_symbol
_atom_site_fract_x
_atom_site_fract_y
_atom_site_fract_z
_atom_site_occupancy
C2   C   0.443258398383703   0.388295865858512   0.375000000000000   1.0000000
C2   C   0.551216663106135   0.442274998219732   0.375000000000000   1.0000000
N2   N   0.111028950782777   0.055526509703777   0.124893736340129   1.0000000
N2   N   0.611059358528755   0.555628165965622   0.124331708373031   1.0000000
N2   N   0.444379806962477   0.055526406477912   0.124890427100816   1.0000000
N2   N   0.944338720342517   0.555499933444618   0.124939259783443   1.0000000
N2   N   0.777718507408937   0.055525920371129   0.124840445107286   1.0000000
N2   N   0.111016904186056   0.722175118759673   0.625123347498260   1.0000000
N2   N   0.444379806962477   0.722186733817884   0.625109572899173   1.0000000
N2   N   0.277693086471333   0.222199204341474   0.625104409032851   1.0000000
N2   N   0.777705866392929   0.722225074563550   0.625172453163920   1.0000000
N2   N   0.611078703508609   0.222142429510628   0.625251364300435   1.0000000
N2   N   0.944364732174617   0.222173030126322   0.625075114388572   1.0000000
N2   N   0.277698558255805   0.722176753046099   0.124930212340394   1.0000000
N2   N   0.110989093848843   0.222161213591087   0.124846416636026   1.0000000
N2   N   0.444399699698306   0.222203248397898   0.124917731768612   1.0000000
N2   N   0.611078703508609   0.722269607331319   0.124748635699590   1.0000000
N2   N   0.944338720342517   0.722172120231206   0.124939259783443   1.0000000
N2   N   0.777725181068683   0.222159302007527   0.124916078846107   1.0000000
N2   N   0.111018526315399   0.888850733083631   0.625066274206785   1.0000000
N2   N   0.444364473455055   0.888848903394227   0.625084407405062   1.0000000
N2   N   0.277693086471333   0.388827215463208   0.625104409032851   1.0000000
N2   N   0.611059358528755   0.388764525896461   0.625668291627014   1.0000000
N2   N   0.777725181068683   0.888899212394530   0.625083921153934   1.0000000
N2   N   0.944372007771796   0.388845837735590   0.625050837447202   1.0000000
N2   N   0.111028950782777   0.388835774412320   0.124893736340129   1.0000000
N2   N   0.277698558255804   0.888855138543011   0.124930212340394   1.0000000
N2   N   0.611053694234547   0.888876986943868   0.124916764781097   1.0000000
N2   N   0.444348884084957   0.388841108709140   0.124784907164813   1.0000000
N2   N   0.944372007771796   0.888859503369548   0.124949162552786   1.0000000
N2   N   0.777705866392929   0.388814125162683   0.124827546836125   1.0000000
N2   N   0.277715332054344   0.555495141777989   0.625066048462167   1.0000000
N2   N   0.111028950782777   0.055526509703777   0.625106263659897   1.0000000
N2   N   0.611059358528755   0.555628165965622   0.625668291627014   1.0000000
N2   N   0.444379806962477   0.055526406477912   0.625109572899173   1.0000000
N2   N   0.944338720342517   0.555499933444618   0.625060740216549   1.0000000
N2   N   0.111018526315399   0.555501126565129   0.124933725793227   1.0000000
N2   N   0.777718507408937   0.055525920371129   0.625159554892713   1.0000000
N2   N   0.277715332054344   0.055553523609708   0.124933951537855   1.0000000
N2   N   0.444399699698306   0.555529784633752   0.124917731768612   1.0000000
N2   N   0.777645069293514   0.555489201313424   0.124857969196284   1.0000000
N2   N   0.611053694234547   0.055510040624017   0.124916764781097   1.0000000
N2   N   0.444399699698306   0.555529784633752   0.625082268231370   1.0000000
N2   N   0.944364732174617   0.055525035381627   0.124924885611416   1.0000000
N2   N   0.277698558255804   0.722176753046099   0.625069787659597   1.0000000
N2   N   0.110989093848843   0.222161213591087   0.625153583363980   1.0000000
N2   N   0.444399699698306   0.222203248397898   0.625082268231370   1.0000000
N2   N   0.611078703508609   0.722269607331319   0.625251364300435   1.0000000
N2   N   0.944338720342517   0.722172120231206   0.625060740216549   1.0000000
N2   N   0.777725181068683   0.222159302007527   0.625083921153934   1.0000000
N2   N   0.111016904186057   0.722175118759673   0.124876652501733   1.0000000
N2   N   0.444379806962477   0.722186733817884   0.124890427100816   1.0000000
N2   N   0.277693086471333   0.222199204341474   0.124895590967160   1.0000000
N2   N   0.777705866392929   0.722225074563550   0.124827546836125   1.0000000
N2   N   0.611078703508609   0.222142429510628   0.124748635699590   1.0000000
N2   N   0.944364732174617   0.222173030126322   0.124924885611416   1.0000000
N2   N   0.111028950782777   0.388835774412320   0.625106263659897   1.0000000
N2   N   0.277698558255804   0.888855138543011   0.625069787659597   1.0000000
N2   N   0.611053694234547   0.888876986943868   0.625083235218880   1.0000000
N2   N   0.444348884084955   0.388841108709140   0.625215092835180   1.0000000
N2   N   0.944372007771796   0.888859503369548   0.625050837447202   1.0000000
N2   N   0.111018526315399   0.888850733083631   0.124933725793227   1.0000000
N2   N   0.777705866392929   0.388814125162683   0.625172453163920   1.0000000
N2   N   0.444364473455055   0.888848903394227   0.124915592594933   1.0000000
N2   N   0.277693086471333   0.388827215463207   0.124895590967160   1.0000000
N2   N   0.277715332054344   0.555495141777989   0.124933951537855   1.0000000
N2   N   0.611059358528755   0.388764525896461   0.124331708373031   1.0000000
N2   N   0.777725181068683   0.888899212394530   0.124916078846107   1.0000000
N2   N   0.944372007771796   0.388845837735590   0.124949162552786   1.0000000
N2   N   0.111018526315399   0.555501126565129   0.625066274206785   1.0000000
N2   N   0.277715332054344   0.055553523609708   0.625066048462167   1.0000000
N2   N   0.777645069293514   0.555489201313424   0.625142030803729   1.0000000
N2   N   0.611053694234547   0.055510040624017   0.625083235218880   1.0000000
N2   N   0.944364732174617   0.055525035381627   0.625075114388572   1.0000000
N2   N   0.055573713260520   0.111086374864732   0.375000000000000   1.0000000
N2   N   0.555560956539296   0.613105445839682   0.375000000000000   1.0000000
N2   N   0.388658631054123   0.111633781544183   0.375000000000000   1.0000000
N2   N   0.889441105038012   0.611387219185687   0.375000000000000   1.0000000
N2   N   0.722295955581568   0.111024085701272   0.375000000000000   1.0000000
N2   N   0.055649997565711   0.777840932077571   0.875000000000000   1.0000000
N2   N   0.388984604337939   0.777839990727379   0.875000000000000   1.0000000
N2   N   0.222324914968891   0.277829124151104   0.875000000000000   1.0000000
N2   N   0.722322054657729   0.777835019700530   0.875000000000000   1.0000000
N2   N   0.555654213691202   0.277818330584239   0.875000000000000   1.0000000
N2   N   0.888999928499668   0.277838138499192   0.875000000000000   1.0000000
N2   N   0.222391965199002   0.777862649266178   0.375000000000000   1.0000000
N2   N   0.055573713260520   0.277820671729123   0.375000000000000   1.0000000
N2   N   0.388412478221764   0.279408302104394   0.375000000000000   1.0000000
N2   N   0.555418892977435   0.778403581558525   0.375000000000000   1.0000000
N2   N   0.889539668656979   0.778268301369887   0.375000000000000   1.0000000
N2   N   0.722505644698672   0.277535377076591   0.375000000000000   1.0000000
N2   N   0.055653643857158   0.944477970368586   0.875000000000000   1.0000000
N2   N   0.388984604337939   0.944477946943886   0.875000000000000   1.0000000
N2   N   0.222350248604830   0.444508482996065   0.875000000000000   1.0000000
N2   N   0.555678356564588   0.444505844948959   0.875000000000000   1.0000000
N2   N   0.722318293527846   0.944476283047781   0.875000000000000   1.0000000
N2   N   0.889007048472656   0.444506633543316   0.875000000000000   1.0000000
N2   N   0.055947649719296   0.444570607800220   0.375000000000000   1.0000000
N2   N   0.222344551548437   0.944480837265029   0.375000000000000   1.0000000
N2   N   0.555434843372007   0.944384088352664   0.375000000000000   1.0000000
N2   N   0.388412478221764   0.442337509450673   0.375000000000000   1.0000000
N2   N   0.889133559238336   0.944630208911319   0.375000000000000   1.0000000
N2   N   0.723234685223040   0.444429759222021   0.375000000000000   1.0000000
N2   N   0.222326077203604   0.611163475724538   0.875000000000000   1.0000000
N2   N   0.055656615321449   0.111169365184262   0.875000000000000   1.0000000
N2   N   0.555654213691202   0.611169216440352   0.875000000000000   1.0000000
N2   N   0.388984938493917   0.111171720812244   0.875000000000000   1.0000000
N2   N   0.888996730895971   0.611165032114622   0.875000000000000   1.0000000
N2   N   0.055943957474715   0.611320908449969   0.375000000000000   1.0000000
N2   N   0.722318293527846   0.111175343813367   0.875000000000000   1.0000000
N2   N   0.222503109964594   0.111284112647060   0.375000000000000   1.0000000
N2   N   0.388658631054123   0.610358182843313   0.375000000000000   1.0000000
N2   N   0.723234685223040   0.612138259334349   0.375000000000000   1.0000000
N2   N   0.555418892977435   0.110348644752264   0.375000000000000   1.0000000
N2   N   0.388984938493917   0.611146551014967   0.875000000000000   1.0000000
N2   N   0.889019590140683   0.111176461737018   0.375000000000000   1.0000000
N2   N   0.222342999425239   0.777838166379308   0.875000000000000   1.0000000
N2   N   0.055656615321449   0.277820583470533   0.875000000000000   1.0000000
N2   N   0.388990208966586   0.277815775685605   0.875000000000000   1.0000000
N2   N   0.555671279442667   0.777838783054711   0.875000000000000   1.0000000
N2   N   0.889007048472656   0.777833748262655   0.875000000000000   1.0000000
N2   N   0.722322054657729   0.277820368290511   0.875000000000000   1.0000000
N2   N   0.055943957474715   0.777956382358132   0.375000000000000   1.0000000
N2   N   0.388838588192033   0.777617034786712   0.375000000000000   1.0000000
N2   N   0.221597212442943   0.277465272888131   0.375000000000000   1.0000000
N2   N   0.722505644698672   0.778303600955440   0.375000000000000   1.0000000
N2   N   0.555560956539296   0.275788844032970   0.375000000000000   1.0000000
N2   N   0.889133559238336   0.277836683660341   0.375000000000000   1.0000000
N2   N   0.055653643857158   0.444509006821907   0.875000000000000   1.0000000
N2   N   0.222326077203604   0.944495934812377   0.875000000000000   1.0000000
N2   N   0.555655469736019   0.944494401534679   0.875000000000000   1.0000000
N2   N   0.388990208966586   0.444507766614297   0.875000000000000   1.0000000
N2   N   0.888999928499668   0.944495123333826   0.875000000000000   1.0000000
N2   N   0.055947649719296   0.944710375252386   0.375000000000000   1.0000000
N2   N   0.722314969482319   0.444509269851339   0.875000000000000   1.0000000
N2   N   0.388838588192033   0.944554886738743   0.375000000000000   1.0000000
N2   N   0.222503109964594   0.444552330650863   0.375000000000000   1.0000000
N2   N   0.222344551548437   0.611197047616742   0.375000000000000   1.0000000
N2   N   0.722295955581568   0.944605203213638   0.375000000000000   1.0000000
N2   N   0.889539668656979   0.444604700620441   0.375000000000000   1.0000000
N2   N   0.055649997565711   0.611142398821466   0.875000000000000   1.0000000
N2   N   0.222350248604830   0.111175098942089   0.875000000000000   1.0000000
N2   N   0.722314969482319   0.611139032964330   0.875000000000000   1.0000000
N2   N   0.555671279442667   0.111165829721299   0.875000000000000   1.0000000
N2   N   0.889015750384212   0.111174541858783   0.875000000000000   1.0000000
B2   B   0.111573017338076   0.055877026976672   0.375000000000000   1.0000000
B2   B   0.610592570504947   0.555789524199439   0.375000000000000   1.0000000
B2   B   0.444350543745397   0.056035515636759   0.375000000000000   1.0000000
B2   B   0.944633629517595   0.555703369937039   0.375000000000000   1.0000000
B2   B   0.777830349138013   0.055581841235662   0.375000000000000   1.0000000
B2   B   0.111212320256493   0.722272826794916   0.875000000000000   1.0000000
B2   B   0.444563709743421   0.722257892953804   0.875000000000000   1.0000000
B2   B   0.277984320677468   0.222262414435782   0.875000000000000   1.0000000
B2   B   0.777849485110338   0.722224039024994   0.875000000000000   1.0000000
B2   B   0.611249769231268   0.222255262337940   0.875000000000000   1.0000000
B2   B   0.944613410813579   0.222235592255234   0.875000000000000   1.0000000
B2   B   0.277885437248770   0.722261501691971   0.375000000000000   1.0000000
B2   B   0.111222823023502   0.222278078178415   0.375000000000000   1.0000000
B2   B   0.444801705152711   0.223715011455848   0.375000000000000   1.0000000
B2   B   0.610882802381847   0.722607880876137   0.375000000000000   1.0000000
B2   B   0.944633629517595   0.722263592913876   0.375000000000000   1.0000000
B2   B   0.777739599939202   0.222305238290399   0.375000000000000   1.0000000
B2   B   0.111119449438736   0.888894272499320   0.875000000000000   1.0000000
B2   B   0.444454065651181   0.888893699492280   0.875000000000000   1.0000000
B2   B   0.277984320677468   0.389055239575023   0.875000000000000   1.0000000
B2   B   0.611236525899724   0.389053081895069   0.875000000000000   1.0000000
B2   B   0.777776034707948   0.888861175968499   0.875000000000000   1.0000000
B2   B   0.944592941741589   0.389058487180667   0.875000000000000   1.0000000
B2   B   0.111573017338076   0.389029323694734   0.375000000000000   1.0000000
B2   B   0.277885437248770   0.888957268890099   0.375000000000000   1.0000000
B2   B   0.611080237720329   0.888966166455644   0.375000000000000   1.0000000
B2   B   0.944758476308825   0.889033258859988   0.375000000000000   1.0000000
B2   B   0.777974177951421   0.389241640246556   0.375000000000000   1.0000000
B2   B   0.277964931006112   0.555549841372351   0.875000000000000   1.0000000
B2   B   0.111245172310673   0.055625303267702   0.875000000000000   1.0000000
B2   B   0.611236525899724   0.555516777338001   0.875000000000000   1.0000000
B2   B   0.444563709743421   0.055639150122956   0.875000000000000   1.0000000
B2   B   0.944571248434105   0.555555247737284   0.875000000000000   1.0000000
B2   B   0.111289107371670   0.555652912360789   0.375000000000000   1.0000000
B2   B   0.777886293905562   0.055609813619448   0.875000000000000   1.0000000
B2   B   0.277968619568292   0.055804806328216   0.375000000000000   1.0000000
B2   B   0.444801705152711   0.554420027030192   0.375000000000000   1.0000000
B2   B   0.777399210954233   0.555366272143763   0.375000000000000   1.0000000
B2   B   0.611080237720329   0.055447404598069   0.375000000000000   1.0000000
B2   B   0.444486545356047   0.555547896499288   0.875000000000000   1.0000000
B2   B   0.944626145921531   0.055662491260728   0.375000000000000   1.0000000
B2   B   0.277941910541115   0.722373258192813   0.875000000000000   1.0000000
B2   B   0.111148948906713   0.222241141120022   0.875000000000000   1.0000000
B2   B   0.444486545356047   0.222271982190101   0.875000000000000   1.0000000
B2   B   0.611249769231268   0.722327840226664   0.875000000000000   1.0000000
B2   B   0.944571248434105   0.722349334030169   0.875000000000000   1.0000000
B2   B   0.777776034707948   0.222248192072713   0.875000000000000   1.0000000
B2   B   0.111318114644166   0.722325723988722   0.375000000000000   1.0000000
B2   B   0.444350543745397   0.721648361441918   0.375000000000000   1.0000000
B2   B   0.278179760882886   0.222701665240679   0.375000000000000   1.0000000
B2   B   0.777974177951421   0.722065871038166   0.375000000000000   1.0000000
B2   B   0.610882802381847   0.221608254839012   0.375000000000000   1.0000000
B2   B   0.944626145921531   0.222296987994144   0.375000000000000   1.0000000
B2   B   0.111245172310673   0.388953202376305   0.875000000000000   1.0000000
B2   B   0.277941910541131   0.888901985681621   0.875000000000000   1.0000000
B2   B   0.611260308183094   0.888868097018135   0.875000000000000   1.0000000
B2   B   0.444605168419159   0.388969250876244   0.875000000000000   1.0000000
B2   B   0.944592941741589   0.888867787894352   0.875000000000000   1.0000000
B2   B   0.111289107371670   0.888969528344259   0.375000000000000   1.0000000
B2   B   0.777849485110338   0.388958779418731   0.875000000000000   1.0000000
B2   B   0.444359411587934   0.888846372460650   0.375000000000000   1.0000000
B2   B   0.278179760882886   0.388811428975535   0.375000000000000   1.0000000
B2   B   0.277968619568292   0.555497146573466   0.375000000000000   1.0000000
B2   B   0.610592570504947   0.388136379638899   0.375000000000000   1.0000000
B2   B   0.777739599939202   0.888767694982127   0.375000000000000   1.0000000
B2   B   0.944758476308825   0.389058550782154   0.375000000000000   1.0000000
B2   B   0.111119449438736   0.555558510272727   0.875000000000000   1.0000000
B2   B   0.277964931006112   0.055748422967085   0.875000000000000   1.0000000
B2   B   0.777737055789924   0.555535194561634   0.875000000000000   1.0000000
B2   B   0.611260308183094   0.055725544498307   0.875000000000000   1.0000000
B2   B   0.944613410813579   0.055711151891660   0.875000000000000   1.0000000
B2   B   0.055457598103918   0.111132853845282   0.124982529058480   1.0000000
B2   B   0.555566949879161   0.610977215218077   0.125081087434692   1.0000000
B2   B   0.388883951898646   0.111299917392597   0.125100672942060   1.0000000
B2   B   0.888597427564758   0.610965380449092   0.125128338497838   1.0000000
B2   B   0.722122015297304   0.111124818103769   0.124998655038733   1.0000000
B2   B   0.055361223439868   0.777737707445930   0.624993512486759   1.0000000
B2   B   0.388820630508767   0.777746326928469   0.625014879157422   1.0000000
B2   B   0.222223494792288   0.277778414062814   0.624965915908512   1.0000000
B2   B   0.722076759033708   0.777720477443453   0.624958736126936   1.0000000
B2   B   0.555566949879161   0.277923067994440   0.624918912565294   1.0000000
B2   B   0.888781928551010   0.277722469546697   0.624962835171347   1.0000000
B2   B   0.222197762433748   0.777765547883527   0.124982849508885   1.0000000
B2   B   0.055457598103918   0.277658077591976   0.124982529058480   1.0000000
B2   B   0.388956293934432   0.277905541076204   0.125389043404697   1.0000000
B2   B   0.555595908763366   0.777728329762985   0.125009929017929   1.0000000
B2   B   0.888749227186306   0.777701876640275   0.125062489061336   1.0000000
B2   B   0.722076759033708   0.277689614923560   0.125041263873044   1.0000000
B2   B   0.055424753957491   0.944356976665635   0.624992381742571   1.0000000
B2   B   0.388820630508767   0.944407636913614   0.625014879157422   1.0000000
B2   B   0.222289806777698   0.444389189739339   0.624953318990261   1.0000000
B2   B   0.555583612843817   0.444458473088573   0.623394074111901   1.0000000
B2   B   0.722122015297304   0.944330530526894   0.625001344961261   1.0000000
B2   B   0.888749227186306   0.444380683879376   0.624937510938650   1.0000000
B2   B   0.055424753957491   0.444401110625191   0.125007618257431   1.0000000
B2   B   0.222165343005604   0.944478629465789   0.125012104969093   1.0000000
B2   B   0.555509794031898   0.944421563682657   0.125009511506912   1.0000000
B2   B   0.388956293934432   0.444384086191545   0.125389043404697   1.0000000
B2   B   0.888781928551010   0.944392792337637   0.125037164828646   1.0000000
B2   B   0.721900301365601   0.444349263869687   0.125178597488026   1.0000000
B2   B   0.222165343005604   0.611020046873107   0.624987895030881   1.0000000
B2   B   0.055457598103918   0.111132853845282   0.625017470941567   1.0000000
B2   B   0.555566949879161   0.610977215218077   0.624918912565294   1.0000000
B2   B   0.388883951898646   0.111299917392597   0.624899327057923   1.0000000
B2   B   0.888597427564759   0.610965380449092   0.624871661502182   1.0000000
B2   B   0.055361223439868   0.610956849327251   0.125006487513207   1.0000000
B2   B   0.722122015297304   0.111124818103769   0.625001344961261   1.0000000
B2   B   0.222289806777698   0.111233950371691   0.125046681009756   1.0000000
B2   B   0.388883951898646   0.610917367839397   0.125100672942060   1.0000000
B2   B   0.721900301365601   0.610884370829269   0.125178597488026   1.0000000
B2   B   0.555595908763366   0.111200912333696   0.125009929017929   1.0000000
B2   B   0.388883951898646   0.610917367839397   0.624899327057923   1.0000000
B2   B   0.888873503332376   0.111103418332864   0.124987378477879   1.0000000
B2   B   0.222197762433748   0.777765547883527   0.625017150491105   1.0000000
B2   B   0.055457598103918   0.277658077591976   0.625017470941567   1.0000000
B2   B   0.388956293934432   0.277905541076204   0.624610956595269   1.0000000
B2   B   0.555595908763366   0.777728329762985   0.624990070982076   1.0000000
B2   B   0.888749227186306   0.777701876640275   0.624937510938650   1.0000000
B2   B   0.722076759033708   0.277689614923560   0.624958736126936   1.0000000
B2   B   0.055361223439868   0.777737707445930   0.125006487513207   1.0000000
B2   B   0.388820630508767   0.777746326928469   0.124985120842603   1.0000000
B2   B   0.222223494792288   0.277778414062814   0.125034084091474   1.0000000
B2   B   0.722076759033708   0.777720477443453   0.125041263873044   1.0000000
B2   B   0.555566949879161   0.277923067994440   0.125081087434692   1.0000000
B2   B   0.888781928551010   0.277722469546697   0.125037164828646   1.0000000
B2   B   0.055424753957491   0.444401110625191   0.624992381742571   1.0000000
B2   B   0.222165343005604   0.944478629465789   0.624987895030881   1.0000000
B2   B   0.555509794031898   0.944421563682657   0.624990488493088   1.0000000
B2   B   0.388956293934432   0.444384086191545   0.624610956595269   1.0000000
B2   B   0.888781928551010   0.944392792337637   0.624962835171347   1.0000000
B2   B   0.055424753957491   0.944356976665635   0.125007618257431   1.0000000
B2   B   0.721900301365601   0.444349263869687   0.624821402511979   1.0000000
B2   B   0.388820630508767   0.944407636913614   0.124985120842603   1.0000000
B2   B   0.222289806777698   0.444389189739339   0.125046681009756   1.0000000
B2   B   0.222165343005604   0.611020046873107   0.125012104969093   1.0000000
B2   B   0.555583612843817   0.444458473088573   0.126605925888057   1.0000000
B2   B   0.722122015297304   0.944330530526894   0.124998655038733   1.0000000
B2   B   0.888749227186306   0.444380683879376   0.125062489061336   1.0000000
B2   B   0.055361223439868   0.610956849327251   0.624993512486759   1.0000000
B2   B   0.222289806777698   0.111233950371691   0.624953318990261   1.0000000
B2   B   0.721900301365601   0.610884370829269   0.624821402511979   1.0000000
B2   B   0.555595908763366   0.111200912333696   0.624990070982076   1.0000000
B2   B   0.888873503332376   0.111103418332864   0.625012621522157   1.0000000


