data_1
_audit_creation_method   'vasp2cif'
_cell_length_a    14.93631414619966
_cell_length_b    14.936314146199727
_cell_length_c    13.341276283792837
_cell_angle_alpha    90.0
_cell_angle_beta    90.0
_cell_angle_gamma    119.99999999999984

_symmetry_space_group_name_H-M    'P 1'
loop_
_atom_site_label
_atom_site_type_symbol
_atom_site_fract_x
_atom_site_fract_y
_atom_site_fract_z
_atom_site_occupancy
Se2   Se   0.498363486209873   0.415848409771597   0.375000000000000   1.0000000
N2   N   0.111032198088812   0.055495912023418   0.125198783817146   1.0000000
N2   N   0.610972360701729   0.555475045917027   0.124792579582885   1.0000000
N2   N   0.444371278231740   0.055514606053785   0.125191743193499   1.0000000
N2   N   0.944347617684177   0.555517515261753   0.125223272171732   1.0000000
N2   N   0.777717473727946   0.055525403530641   0.125077117034197   1.0000000
N2   N   0.111030307204403   0.722181820268858   0.624879927086508   1.0000000
N2   N   0.444371278231740   0.722190005511291   0.624808256806501   1.0000000
N2   N   0.277685239460876   0.222167952802223   0.625280551204029   1.0000000
N2   N   0.777660333554591   0.722139019365766   0.624655947913520   1.0000000
N2   N   0.611017317751116   0.222176949770164   0.624788008702550   1.0000000
N2   N   0.944377722537391   0.222200324516160   0.624854806380676   1.0000000
N2   N   0.277704634320154   0.722190819657396   0.125147029263742   1.0000000
N2   N   0.111038217493924   0.222185775413627   0.125142776491803   1.0000000
N2   N   0.444361485927565   0.222174564131775   0.124717476209859   1.0000000
N2   N   0.611017317751116   0.722173701314281   0.125211991297450   1.0000000
N2   N   0.944347617684177   0.722163435755760   0.125223272171732   1.0000000
N2   N   0.777700836392137   0.222197823632262   0.125161578112185   1.0000000
N2   N   0.111030830150693   0.888832931438166   0.624853726490028   1.0000000
N2   N   0.444379306484125   0.888856319908723   0.624854072359660   1.0000000
N2   N   0.277685239460876   0.388850619991982   0.625280551204029   1.0000000
N2   N   0.610972360701729   0.388830648118030   0.625207420417115   1.0000000
N2   N   0.777700836392137   0.888836346093197   0.624838421887823   1.0000000
N2   N   0.944359566533503   0.388871032175475   0.624804216668540   1.0000000
N2   N   0.111032198088812   0.388869619398716   0.125198783817146   1.0000000
N2   N   0.277704634320154   0.888847147996086   0.125147029263742   1.0000000
N2   N   0.611044601798072   0.888858880362384   0.125121152780941   1.0000000
N2   N   0.444259985683518   0.388796659508427   0.122944269003430   1.0000000
N2   N   0.944359566533503   0.888821867691364   0.125195783331453   1.0000000
N2   N   0.777660333554591   0.388854647522161   0.125344052086480   1.0000000
N2   N   0.277703290490600   0.555532070825094   0.624887088557241   1.0000000
N2   N   0.111032198088812   0.055495912023418   0.624801216182861   1.0000000
N2   N   0.610972360701729   0.555475045917027   0.625207420417115   1.0000000
N2   N   0.444371278231740   0.055514606053785   0.624808256806501   1.0000000
N2   N   0.944347617684177   0.555517515261753   0.624776727828268   1.0000000
N2   N   0.111030830150693   0.555531232045863   0.125146273509972   1.0000000
N2   N   0.777717473727946   0.055525403530641   0.624922882965796   1.0000000
N2   N   0.277703290490600   0.055504552998841   0.125112911442758   1.0000000
N2   N   0.444361485927565   0.555520255129126   0.124717476209859   1.0000000
N2   N   0.777655896193149   0.555494614763242   0.125351847150810   1.0000000
N2   N   0.611044601798072   0.055519054769016   0.125121152780941   1.0000000
N2   N   0.444361485927565   0.555520255129126   0.625282523790141   1.0000000
N2   N   0.944377722537391   0.055510731354566   0.125145193619324   1.0000000
N2   N   0.277704634320154   0.722190819657396   0.624852970736251   1.0000000
N2   N   0.111038217493924   0.222185775413627   0.624857223508196   1.0000000
N2   N   0.444361485927565   0.222174564131775   0.625282523790141   1.0000000
N2   N   0.611017317751116   0.722173701314281   0.624788008702550   1.0000000
N2   N   0.944347617684177   0.722163435755753   0.624776727828268   1.0000000
N2   N   0.777700836392137   0.222197823632262   0.624838421887823   1.0000000
N2   N   0.111030307204403   0.722181820268858   0.125120072913492   1.0000000
N2   N   0.444371278231740   0.722190005511291   0.125191743193499   1.0000000
N2   N   0.277685239460876   0.222167952802223   0.124719448795971   1.0000000
N2   N   0.777660333554591   0.722139019365766   0.125344052086480   1.0000000
N2   N   0.611017317751116   0.222176949770164   0.125211991297450   1.0000000
N2   N   0.944377722537391   0.222200324516160   0.125145193619324   1.0000000
N2   N   0.111032198088812   0.388869619398716   0.624801216182861   1.0000000
N2   N   0.277704634320154   0.888847147996086   0.624852970736251   1.0000000
N2   N   0.611044601798072   0.888858880362384   0.624878847219058   1.0000000
N2   N   0.444259985683518   0.388796659508427   0.627055730996570   1.0000000
N2   N   0.944359566533503   0.888821867691364   0.624804216668540   1.0000000
N2   N   0.111030830150693   0.888832931438166   0.125146273509972   1.0000000
N2   N   0.777660333554591   0.388854647522161   0.624655947913520   1.0000000
N2   N   0.444379306484125   0.888856319908723   0.125145927640333   1.0000000
N2   N   0.277685239460876   0.388850619991982   0.124719448795971   1.0000000
N2   N   0.277703290490600   0.555532070825094   0.125112911442758   1.0000000
N2   N   0.610972360701729   0.388830648118030   0.124792579582885   1.0000000
N2   N   0.777700836392137   0.888836346093197   0.125161578112185   1.0000000
N2   N   0.944359566533503   0.388871032175475   0.125195783331453   1.0000000
N2   N   0.111030830150693   0.555531232045863   0.624853726490028   1.0000000
N2   N   0.277703290490600   0.055504552998841   0.624887088557241   1.0000000
N2   N   0.777655896193149   0.555494614763242   0.624648152849197   1.0000000
N2   N   0.611044601798072   0.055519054769016   0.624878847219058   1.0000000
N2   N   0.944377722537391   0.055510731354566   0.624854806380676   1.0000000
N2   N   0.059060507902567   0.113140327189089   0.375000000000000   1.0000000
N2   N   0.555349876458935   0.619346452733282   0.375000000000000   1.0000000
N2   N   0.388405991518626   0.106562879336792   0.375000000000000   1.0000000
N2   N   0.886107934443082   0.609720633888216   0.375000000000000   1.0000000
N2   N   0.724447692474422   0.111457516310291   0.375000000000000   1.0000000
N2   N   0.055496578774043   0.777748501217513   0.875000000000000   1.0000000
N2   N   0.388838104598639   0.777754445290175   0.875000000000000   1.0000000
N2   N   0.222154981757815   0.277744157545579   0.875000000000000   1.0000000
N2   N   0.722167654769746   0.777750996372068   0.875000000000000   1.0000000
N2   N   0.555499411885261   0.277749961266038   0.875000000000000   1.0000000
N2   N   0.888833833059280   0.277750677925510   0.875000000000000   1.0000000
N2   N   0.221013929228498   0.777173631280914   0.375000000000000   1.0000000
N2   N   0.059060507902567   0.279253514046814   0.375000000000000   1.0000000
N2   N   0.394059193018259   0.274006276065972   0.375000000000000   1.0000000
N2   N   0.556271785378237   0.781707245114813   0.375000000000000   1.0000000
N2   N   0.888570575021467   0.777977213216421   0.375000000000000   1.0000000
N2   N   0.723820881033386   0.276618775799305   0.375000000000000   1.0000000
N2   N   0.055493489315239   0.944412834265841   0.875000000000000   1.0000000
N2   N   0.388838104598639   0.944416992641793   0.875000000000000   1.0000000
N2   N   0.222155032483484   0.444413259636572   0.875000000000000   1.0000000
N2   N   0.555501555355555   0.444417444344446   0.875000000000000   1.0000000
N2   N   0.722166867252483   0.944418356079629   0.875000000000000   1.0000000
N2   N   0.888833427047675   0.444415794719080   0.875000000000000   1.0000000
N2   N   0.056831456639370   0.444863928369015   0.375000000000000   1.0000000
N2   N   0.221521358916687   0.943191998653243   0.375000000000000   1.0000000
N2   N   0.556410082527453   0.944871707930387   0.375000000000000   1.0000000
N2   N   0.394059193018259   0.453386250285617   0.375000000000000   1.0000000
N2   N   0.891296104946390   0.946318580368434   0.375000000000000   1.0000000
N2   N   0.719505499712977   0.442527470612547   0.375000000000000   1.0000000
N2   N   0.222161582202943   0.611081567467992   0.875000000000000   1.0000000
N2   N   0.055491996929122   0.111078703109267   0.875000000000000   1.0000000
N2   N   0.555499411885261   0.611082783952559   0.875000000000000   1.0000000
N2   N   0.388831212730183   0.111080520160790   0.875000000000000   1.0000000
N2   N   0.888833308994642   0.611083321163996   0.875000000000000   1.0000000
N2   N   0.054106973259799   0.610556500365155   0.375000000000000   1.0000000
N2   N   0.722166867252483   0.111081844506183   0.875000000000000   1.0000000
N2   N   0.225534520241339   0.112635538141709   0.375000000000000   1.0000000
N2   N   0.388405991518626   0.615176445515177   0.375000000000000   1.0000000
N2   N   0.719505499712977   0.610311362433773   0.375000000000000   1.0000000
N2   N   0.556271785378237   0.107897873596759   0.375000000000000   1.0000000
N2   N   0.388831212730183   0.611084025902736   0.875000000000000   1.0000000
N2   N   0.891943186418151   0.112638259875750   0.375000000000000   1.0000000
N2   N   0.222167085770475   0.777750209551898   0.875000000000000   1.0000000
N2   N   0.055491996929122   0.277746627153191   0.875000000000000   1.0000000
N2   N   0.388824966118375   0.277742475515087   0.875000000000000   1.0000000
N2   N   0.555501860614797   0.777753258429689   0.875000000000000   1.0000000
N2   N   0.888833427047675   0.777750965661930   0.875000000000000   1.0000000
N2   N   0.722167654769746   0.277749991731007   0.875000000000000   1.0000000
N2   N   0.054106973259799   0.776883806227980   0.375000000000000   1.0000000
N2   N   0.388424014306895   0.778886609757818   0.375000000000000   1.0000000
N2   N   0.227316863068555   0.280325098200949   0.375000000000000   1.0000000
N2   N   0.723820881033386   0.780535438567417   0.375000000000000   1.0000000
N2   N   0.555349876458942   0.269336757058989   0.375000000000000   1.0000000
N2   N   0.891296104946397   0.278310857911298   0.375000000000000   1.0000000
N2   N   0.055493489315239   0.444413988382720   0.875000000000000   1.0000000
N2   N   0.222161582202943   0.944413348068286   0.875000000000000   1.0000000
N2   N   0.555504200451391   0.944418766892360   0.875000000000000   1.0000000
N2   N   0.388824966118375   0.444415823936623   0.875000000000000   1.0000000
N2   N   0.888833833059280   0.944416488467105   0.875000000000000   1.0000000
N2   N   0.056831456639370   0.945300861603684   0.375000000000000   1.0000000
N2   N   0.722168209563884   0.444417938588750   0.875000000000000   1.0000000
N2   N   0.388424014306895   0.942870737882405   0.375000000000000   1.0000000
N2   N   0.225534520241332   0.446232315432958   0.375000000000000   1.0000000
N2   N   0.221521358916687   0.611662693596772   0.375000000000000   1.0000000
N2   N   0.724447692474422   0.946323509497466   0.375000000000000   1.0000000
N2   N   0.888570575021467   0.443926695138382   0.375000000000000   1.0000000
N2   N   0.055496578774043   0.611081410889866   0.875000000000000   1.0000000
N2   N   0.222155032483484   0.111075106180248   0.875000000000000   1.0000000
N2   N   0.722168209563884   0.611083604308469   0.875000000000000   1.0000000
N2   N   0.555501860614797   0.111081935518451   0.875000000000000   1.0000000
N2   N   0.888833302041298   0.111083317687324   0.875000000000000   1.0000000
B2   B   0.113742483211660   0.056931827817508   0.375000000000000   1.0000000
B2   B   0.612065427379613   0.569562109417119   0.375000000000000   1.0000000
B2   B   0.444965807821540   0.052636851211224   0.375000000000000   1.0000000
B2   B   0.943181643128203   0.554985506753569   0.375000000000000   1.0000000
B2   B   0.780815555044361   0.057074444188845   0.375000000000000   1.0000000
B2   B   0.111062090760454   0.722197712046888   0.875000000000000   1.0000000
B2   B   0.444384865985817   0.722206504220875   0.875000000000000   1.0000000
B2   B   0.277686944869684   0.222170968304326   0.875000000000000   1.0000000
B2   B   0.777739814452056   0.722220962065023   0.875000000000000   1.0000000
B2   B   0.611061170882245   0.222175380249048   0.875000000000000   1.0000000
B2   B   0.944383195278039   0.222186319287638   0.875000000000000   1.0000000
B2   B   0.277145366913927   0.722590940574998   0.375000000000000   1.0000000
B2   B   0.115202418946026   0.224267876139674   0.375000000000000   1.0000000
B2   B   0.444641807375155   0.215355179291365   0.375000000000000   1.0000000
B2   B   0.613531662723252   0.729823263992073   0.375000000000000   1.0000000
B2   B   0.943181643128203   0.721529469707963   0.375000000000000   1.0000000
B2   B   0.780530645447613   0.222102839618306   0.375000000000000   1.0000000
B2   B   0.111052065639382   0.888861641965318   0.875000000000000   1.0000000
B2   B   0.444392763832643   0.888863048582989   0.875000000000000   1.0000000
B2   B   0.277686944869684   0.388849309898686   0.875000000000000   1.0000000
B2   B   0.611059314755314   0.388854322707247   0.875000000000000   1.0000000
B2   B   0.777731888123578   0.888880874197495   0.875000000000000   1.0000000
B2   B   0.944393449577952   0.388852218607540   0.875000000000000   1.0000000
B2   B   0.113742483211660   0.390143988727474   0.375000000000000   1.0000000
B2   B   0.277145366913927   0.887887759672257   0.375000000000000   1.0000000
B2   B   0.613278051788446   0.891849767122401   0.375000000000000   1.0000000
B2   B   0.945715974459097   0.889970077229162   0.375000000000000   1.0000000
B2   B   0.778106154065605   0.387316737014702   0.375000000000000   1.0000000
B2   B   0.277703485225974   0.555527566044675   0.875000000000000   1.0000000
B2   B   0.111034941880487   0.055516911659581   0.875000000000000   1.0000000
B2   B   0.611059314755314   0.555538325381395   0.875000000000000   1.0000000
B2   B   0.444384865985817   0.055511695098278   0.875000000000000   1.0000000
B2   B   0.944404797335351   0.555530722208271   0.875000000000000   1.0000000
B2   B   0.110586906685308   0.555755367801019   0.375000000000000   1.0000000
B2   B   0.777729372933780   0.055531353133554   0.875000000000000   1.0000000
B2   B   0.277707078243277   0.053762848910186   0.375000000000000   1.0000000
B2   B   0.444641807375155   0.562619961417126   0.375000000000000   1.0000000
B2   B   0.775407162661773   0.554370247997551   0.375000000000000   1.0000000
B2   B   0.613278051788446   0.054761617999367   0.375000000000000   1.0000000
B2   B   0.444370357054932   0.555533268648355   0.875000000000000   1.0000000
B2   B   0.947712706272733   0.057537091369614   0.375000000000000   1.0000000
B2   B   0.277720715495053   0.722197896521366   0.875000000000000   1.0000000
B2   B   0.111029228132768   0.222181280733048   0.875000000000000   1.0000000
B2   B   0.444370357054932   0.222170421739920   0.875000000000000   1.0000000
B2   B   0.611061170882245   0.722219123966526   0.875000000000000   1.0000000
B2   B   0.944404797335351   0.722207408460422   0.875000000000000   1.0000000
B2   B   0.777731888123578   0.222184347259405   0.875000000000000   1.0000000
B2   B   0.109908045229582   0.721620689281458   0.375000000000000   1.0000000
B2   B   0.444965807821540   0.725662289943659   0.375000000000000   1.0000000
B2   B   0.282395799139635   0.224642450698203   0.375000000000000   1.0000000
B2   B   0.778106154065605   0.724122750384225   0.375000000000000   1.0000000
B2   B   0.613531662723252   0.217041732064507   0.375000000000000   1.0000000
B2   B   0.947712706272733   0.223508948236448   0.375000000000000   1.0000000
B2   B   0.111034941880487   0.388851363554234   0.875000000000000   1.0000000
B2   B   0.277720715495053   0.888856152307016   0.875000000000000   1.0000000
B2   B   0.611063801418506   0.888875935181524   0.875000000000000   1.0000000
B2   B   0.444366835161816   0.388850084247576   0.875000000000000   1.0000000
B2   B   0.944393449577952   0.888874564303734   0.875000000000000   1.0000000
B2   B   0.110586906685308   0.888164872217618   0.375000000000000   1.0000000
B2   B   0.777739814452056   0.388852185720354   0.875000000000000   1.0000000
B2   B   0.445009881876650   0.889171607604989   0.375000000000000   1.0000000
B2   B   0.282395799139628   0.391086681774754   0.375000000000000   1.0000000
B2   B   0.277707078243277   0.557277562666428   0.375000000000000   1.0000000
B2   B   0.612065427379613   0.375836651295830   0.375000000000000   1.0000000
B2   B   0.780530645447613   0.891761139162634   0.375000000000000   1.0000000
B2   B   0.945715974459097   0.389079230563263   0.375000000000000   1.0000000
B2   B   0.111052065639382   0.555523757007393   0.875000000000000   1.0000000
B2   B   0.277703485225974   0.055509252514636   0.875000000000000   1.0000000
B2   B   0.777744276723455   0.555538805028396   0.875000000000000   1.0000000
B2   B   0.611063801418506   0.055521199570311   0.875000000000000   1.0000000
B2   B   0.944383195278039   0.055530209323736   0.875000000000000   1.0000000
B2   B   0.055465526680341   0.111048968405504   0.124954071375648   1.0000000
B2   B   0.555427231773999   0.611139234226668   0.124401352413366   1.0000000
B2   B   0.388757253483702   0.110968247623582   0.124743739158092   1.0000000
B2   B   0.888882164432516   0.611107748882925   0.124952829685103   1.0000000
B2   B   0.722158587965097   0.111055525352988   0.124893000730594   1.0000000
B2   B   0.055515308629348   0.777746606660873   0.625054663080383   1.0000000
B2   B   0.388788973310186   0.777765045075312   0.625049329281296   1.0000000
B2   B   0.222083420389932   0.277708376861634   0.625469745363120   1.0000000
B2   B   0.722161307831006   0.777801444160826   0.625103650358060   1.0000000
B2   B   0.555427231773999   0.277621330880673   0.625598647586641   1.0000000
B2   B   0.888837495166387   0.277749123201351   0.625049792140268   1.0000000
B2   B   0.222143180780636   0.777738257056982   0.124937351710700   1.0000000
B2   B   0.055465526680341   0.277749891608172   0.124954071375648   1.0000000
B2   B   0.388705240994318   0.277648687984613   0.123715016732352   1.0000000
B2   B   0.555460241350847   0.777804607770647   0.124897263774017   1.0000000
B2   B   0.888862058237849   0.777769956358209   0.124981652399261   1.0000000
B2   B   0.722161307831006   0.277693197003516   0.124896349641940   1.0000000
B2   B   0.055483655887541   0.944381824030360   0.625019114523812   1.0000000
B2   B   0.388788973310186   0.944357261568202   0.625049329281296   1.0000000
B2   B   0.222090264072450   0.444429821937364   0.625175492131392   1.0000000
B2   B   0.555352015277939   0.444342674305634   0.626327444447622   1.0000000
B2   B   0.722158587965097   0.944436395945445   0.625106999269406   1.0000000
B2   B   0.888862058237849   0.444425435212976   0.625018347600739   1.0000000
B2   B   0.055483655887541   0.444435165190517   0.124980885476181   1.0000000
B2   B   0.222128475194202   0.944354795036093   0.124940603041887   1.0000000
B2   B   0.555469781713286   0.944401557523303   0.124912014631054   1.0000000
B2   B   0.388705240994318   0.444389886343041   0.123715016732352   1.0000000
B2   B   0.888837495166387   0.944421705298371   0.124950207859732   1.0000000
B2   B   0.722170688695550   0.444400820208282   0.124691691816289   1.0000000
B2   B   0.222128475194202   0.611107013491437   0.625059396958106   1.0000000
B2   B   0.055465526680341   0.111048968405504   0.625045928624352   1.0000000
B2   B   0.555427231773999   0.611139234226668   0.625598647586641   1.0000000
B2   B   0.388757253483702   0.110968247623582   0.625256260841908   1.0000000
B2   B   0.888882164432516   0.611107748882925   0.625047170314897   1.0000000
B2   B   0.055515308629348   0.611102035301817   0.124945336919610   1.0000000
B2   B   0.722158587965097   0.111055525352988   0.625106999269406   1.0000000
B2   B   0.222090264072450   0.110993775468422   0.124824507868607   1.0000000
B2   B   0.388757253483702   0.611122339193471   0.124743739158092   1.0000000
B2   B   0.722170688695550   0.611103201820596   0.124691691816289   1.0000000
B2   B   0.555460241350847   0.110988966913528   0.124897263774017   1.0000000
B2   B   0.388757253483702   0.611122339193471   0.625256260841908   1.0000000
B2   B   0.888825028015493   0.111079180674415   0.124918899478586   1.0000000
B2   B   0.222143180780636   0.777738257056982   0.625062648289307   1.0000000
B2   B   0.055465526680341   0.277749891608172   0.625045928624352   1.0000000
B2   B   0.388705240994318   0.277648687984613   0.626284983267648   1.0000000
B2   B   0.555460241350847   0.777804607770647   0.625102736225975   1.0000000
B2   B   0.888862058237849   0.777769956358209   0.625018347600739   1.0000000
B2   B   0.722161307831006   0.277693197003516   0.625103650358060   1.0000000
B2   B   0.055515308629348   0.777746606660873   0.124945336919610   1.0000000
B2   B   0.388788973310186   0.777765045075312   0.124950670718704   1.0000000
B2   B   0.222083420389932   0.277708376861634   0.124530254636879   1.0000000
B2   B   0.722161307831006   0.777801444160826   0.124896349641940   1.0000000
B2   B   0.555427231773999   0.277621330880673   0.124401352413366   1.0000000
B2   B   0.888837495166387   0.277749123201351   0.124950207859732   1.0000000
B2   B   0.055483655887541   0.444435165190517   0.625019114523812   1.0000000
B2   B   0.222128475194202   0.944354795036093   0.625059396958106   1.0000000
B2   B   0.555469781713286   0.944401557523303   0.625087985368946   1.0000000
B2   B   0.388705240994318   0.444389886343041   0.626284983267648   1.0000000
B2   B   0.888837495166387   0.944421705298371   0.625049792140268   1.0000000
B2   B   0.055483655887541   0.944381824030360   0.124980885476181   1.0000000
B2   B   0.722170688695550   0.444400820208282   0.625308308183711   1.0000000
B2   B   0.388788973310186   0.944357261568202   0.124950670718704   1.0000000
B2   B   0.222090264072450   0.444429821937364   0.124824507868607   1.0000000
B2   B   0.222128475194202   0.611107013491437   0.124940603041887   1.0000000
B2   B   0.555352015277939   0.444342674305634   0.123672555552371   1.0000000
B2   B   0.722158587965097   0.944436395945445   0.124893000730594   1.0000000
B2   B   0.888862058237849   0.444425435212976   0.124981652399261   1.0000000
B2   B   0.055515308629348   0.611102035301817   0.625054663080383   1.0000000
B2   B   0.222090264072450   0.110993775468422   0.625175492131392   1.0000000
B2   B   0.722170688695542   0.611103201820596   0.625308308183711   1.0000000
B2   B   0.555460241350847   0.110988966913528   0.625102736225975   1.0000000
B2   B   0.888825028015493   0.111079180674415   0.625081100521407   1.0000000


