data_1
_audit_creation_method   'vasp2cif'
_cell_length_a    17.52789999999977
_cell_length_b    17.52789999999977
_cell_length_c    15.0
_cell_angle_alpha    90.0
_cell_angle_beta    90.0
_cell_angle_gamma    119.99999999999916

_symmetry_space_group_name_H-M    'P 1'
loop_
_atom_site_label
_atom_site_type_symbol
_atom_site_fract_x
_atom_site_fract_y
_atom_site_fract_z
_atom_site_occupancy
B2   B   0.903566935419681   0.951118116091649   0.110991673230499   1.0000000
B2   B   0.905022310905720   0.094608792138615   0.111028300103263   1.0000000
B2   B   0.905789911361929   0.237650104757231   0.111058273070527   1.0000000
B2   B   0.906429580199493   0.380733630593572   0.111065628705781   1.0000000
B2   B   0.906281099646627   0.523801795478679   0.111036969238137   1.0000000
B2   B   0.903689350391938   0.666309675080397   0.111060718025200   1.0000000
B2   B   0.902096286727537   0.807591215230921   0.110994990227532   1.0000000
B2   B   0.046646710334524   0.952331426265689   0.110978822354619   1.0000000
B2   B   0.047956734256481   0.095717862754514   0.111004935747345   1.0000000
B2   B   0.048444497460078   0.238501353537279   0.111025243150673   1.0000000
B2   B   0.048348961282722   0.381427072473102   0.111047716806695   1.0000000
B2   B   0.048010893369882   0.524622326977634   0.111038852907943   1.0000000
B2   B   0.047048917378159   0.667546481190153   0.111012334194161   1.0000000
B2   B   0.046721685225427   0.810111304414245   0.110979060955691   1.0000000
B2   B   0.190492447916915   0.953992838190280   0.110964670544895   1.0000000
B2   B   0.190843413369912   0.096510213948988   0.111042035242072   1.0000000
B2   B   0.192295772668261   0.240548802714298   0.110997823307357   1.0000000
B2   B   0.190822420894115   0.382694800348166   0.110947499138783   1.0000000
B2   B   0.189705982052226   0.525481107437984   0.110995564858643   1.0000000
B2   B   0.189508733576164   0.668413444706494   0.111034961711571   1.0000000
B2   B   0.189940017084148   0.811192609601938   0.110996344756615   1.0000000
B2   B   0.333558899913400   0.954457389676843   0.111013242205207   1.0000000
B2   B   0.334759858277684   0.097742137144835   0.111071820448721   1.0000000
B2   B   0.335445075050884   0.239632748427334   0.111019278431549   1.0000000
B2   B   0.336753467963972   0.387403817249634   0.110812420453932   1.0000000
B2   B   0.331304191418189   0.528284914290233   0.110929803615575   1.0000000
B2   B   0.331469794218767   0.669608361540768   0.111045850952361   1.0000000
B2   B   0.332716994826421   0.811796984159485   0.111073753296657   1.0000000
B2   B   0.476367240565691   0.953623657388679   0.110994909021819   1.0000000
B2   B   0.477466890525385   0.096368778511961   0.110964158904851   1.0000000
B2   B   0.479889490784359   0.241393080199704   0.111100753219267   1.0000000
B2   B   0.472772188658811   0.669796515658972   0.110897333300481   1.0000000
B2   B   0.475426909767216   0.811408953510437   0.111001001041504   1.0000000
B2   B   0.619104282001303   0.951976960831947   0.111019214846106   1.0000000
B2   B   0.619967262246221   0.094734320425573   0.110984584530420   1.0000000
B2   B   0.620995823600586   0.237154774173426   0.110909005658277   1.0000000
B2   B   0.623014481529760   0.378713421278683   0.110667845806897   1.0000000
B2   B   0.616220881546028   0.511586998040776   0.111971905620650   1.0000000
B2   B   0.614086583678622   0.661194278080616   0.111016907891669   1.0000000
B2   B   0.617792061986411   0.808377640912703   0.110928717638954   1.0000000
B2   B   0.761389100853130   0.951057252855316   0.111023158643100   1.0000000
B2   B   0.762530182013855   0.094361698394242   0.111043974181899   1.0000000
B2   B   0.763391668367002   0.237209587654624   0.111013338139406   1.0000000
B2   B   0.764791042546471   0.379966427847954   0.110878960316971   1.0000000
B2   B   0.764692752587370   0.522609723290383   0.110704519931797   1.0000000
B2   B   0.756792311478122   0.661747553040944   0.111088364155884   1.0000000
B2   B   0.758928885680579   0.806390232646735   0.110987360612437   1.0000000
N2   N   0.950889405568432   0.903526066254072   0.110961664806087   1.0000000
N2   N   0.952239405464218   0.046900550362099   0.110985645422261   1.0000000
N2   N   0.953126776454465   0.189994991727927   0.111022720348039   1.0000000
N2   N   0.953617477189125   0.332970476941091   0.111051710407240   1.0000000
N2   N   0.953737287441485   0.476185483776742   0.111057891136962   1.0000000
N2   N   0.952410483604938   0.619396058264534   0.111042864516036   1.0000000
N2   N   0.951406230261626   0.761776096486342   0.111019195831871   1.0000000
N2   N   0.094782797759607   0.905440291508611   0.110939823939780   1.0000000
N2   N   0.094980714159181   0.047834364521492   0.110991327612694   1.0000000
N2   N   0.096200889081439   0.191390799215476   0.110998526464173   1.0000000
N2   N   0.095650903781030   0.333867168943343   0.111005396529072   1.0000000
N2   N   0.095132666312517   0.476875356496404   0.111011932896958   1.0000000
N2   N   0.094734118996231   0.620078291050519   0.111000471276307   1.0000000
N2   N   0.094703881076941   0.762944800607140   0.110958507708001   1.0000000
N2   N   0.237946131030467   0.906287520564825   0.110963757165676   1.0000000
N2   N   0.238528491549740   0.049043219776069   0.111002139126916   1.0000000
N2   N   0.238432934259875   0.191637881866664   0.111040494771268   1.0000000
N2   N   0.239298958433859   0.336666030931198   0.110910847246179   1.0000000
N2   N   0.236703392758879   0.478008935834395   0.110913678799869   1.0000000
N2   N   0.236613690399815   0.620897225800901   0.111014347667076   1.0000000
N2   N   0.237424017658941   0.763674582447652   0.111039942610007   1.0000000
N2   N   0.380916785801850   0.906562573332568   0.111023529730665   1.0000000
N2   N   0.381630421287246   0.049016443028635   0.110984752811224   1.0000000
N2   N   0.382720428139215   0.192145676680633   0.111165785707406   1.0000000
N2   N   0.372585085748122   0.331872228528112   0.110568711112445   1.0000000
N2   N   0.378590019831840   0.483048083406614   0.110677599239546   1.0000000
N2   N   0.378271471965989   0.622786074262591   0.111043636162217   1.0000000
N2   N   0.380089795981497   0.764483379518447   0.111031980589167   1.0000000
N2   N   0.523835112651042   0.905933848401628   0.111003194089171   1.0000000
N2   N   0.524677212346901   0.047983110210880   0.110934227855548   1.0000000
N2   N   0.525838834772015   0.190106845802447   0.110974346696611   1.0000000
N2   N   0.531860487687034   0.332088921096695   0.110860647844039   1.0000000
N2   N   0.518558429403136   0.622998822032913   0.110630238397899   1.0000000
N2   N   0.522781039996575   0.764106341506708   0.110904281777876   1.0000000
N2   N   0.666242840168185   0.903811828222888   0.110985535662528   1.0000000
N2   N   0.667394925561218   0.046847751837642   0.111009129730884   1.0000000
N2   N   0.668519259660408   0.189187744484912   0.110965915026966   1.0000000
N2   N   0.671226647963446   0.331358414806456   0.110738799853765   1.0000000
N2   N   0.672928739378786   0.473910037203408   0.110419318463198   1.0000000
N2   N   0.660311628594570   0.611819415628596   0.111320088873293   1.0000000
N2   N   0.663210549008054   0.758418851977988   0.110920035138742   1.0000000
N2   N   0.807969520845822   0.902601792751302   0.110991035107545   1.0000000
N2   N   0.809762364727802   0.046485552417038   0.111019749535301   1.0000000
N2   N   0.810800823083111   0.189461110293325   0.111033038807424   1.0000000
N2   N   0.812132334182995   0.332290205345660   0.111012234103980   1.0000000
N2   N   0.812735429011298   0.475442178467989   0.110860942685232   1.0000000
N2   N   0.809088515550106   0.618243609120544   0.110999958989734   1.0000000
N2   N   0.806205128332713   0.758628379890993   0.110985528855656   1.0000000
O2   O   0.471695932741674   0.530124680060269   0.111279731457274   1.0000000
O2   O   0.531461252637289   0.452467169983940   0.114194384589787   1.0000000


