data_1
_audit_creation_method   'vasp2cif'
_cell_length_a    17.52789999999977
_cell_length_b    17.52789999999977
_cell_length_c    15.0
_cell_angle_alpha    90.0
_cell_angle_beta    90.0
_cell_angle_gamma    119.99999999999916

_symmetry_space_group_name_H-M    'P 1'
loop_
_atom_site_label
_atom_site_type_symbol
_atom_site_fract_x
_atom_site_fract_y
_atom_site_fract_z
_atom_site_occupancy
Al2   Al   0.525745413172806   0.623480122139156   0.111201235871651   1.0000000
B2   B   0.908137864878578   0.955033258337738   0.110999085418281   1.0000000
B2   B   0.904663883023940   0.095384298115984   0.111123161048056   1.0000000
B2   B   0.903888562170072   0.237515618398160   0.111016653415758   1.0000000
B2   B   0.904428341861783   0.380269787065774   0.110928812417648   1.0000000
B2   B   0.907013202053215   0.523854145000276   0.111105411366527   1.0000000
B2   B   0.911235694235097   0.668443140138319   0.111071994354074   1.0000000
B2   B   0.911079800736578   0.813303351534334   0.110979717557425   1.0000000
B2   B   0.049643881755206   0.953345185483695   0.111071819429576   1.0000000
B2   B   0.047038554560516   0.094405405723704   0.111017705132306   1.0000000
B2   B   0.045419663106675   0.236651816960810   0.110906770559297   1.0000000
B2   B   0.045204363678037   0.379863539319900   0.110853210315444   1.0000000
B2   B   0.046363110946539   0.523564190822274   0.110876984721224   1.0000000
B2   B   0.049072896195062   0.667456022780040   0.111070555483555   1.0000000
B2   B   0.050281936354976   0.810848643593362   0.111130518511202   1.0000000
B2   B   0.190973114855386   0.952331666998712   0.111002772726488   1.0000000
B2   B   0.189323112204904   0.093197769114520   0.110972993414963   1.0000000
B2   B   0.185784482532173   0.233431322643413   0.110797763951602   1.0000000
B2   B   0.185579430310106   0.378420481137688   0.110949794808015   1.0000000
B2   B   0.185545301293367   0.523290709744213   0.110957022696974   1.0000000
B2   B   0.187789442245483   0.667499903350997   0.110958117273421   1.0000000
B2   B   0.190636063430294   0.810393106795650   0.110921282402276   1.0000000
B2   B   0.332924987382894   0.952578388989902   0.110916982166181   1.0000000
B2   B   0.332461245829423   0.093202711652066   0.111057008452013   1.0000000
B2   B   0.329089602068737   0.232143208893151   0.111072711377262   1.0000000
B2   B   0.322837678429998   0.371900063514610   0.111608794505474   1.0000000
B2   B   0.323995835227557   0.522209000165437   0.111708820593662   1.0000000
B2   B   0.325871925727968   0.668245713516115   0.111285329483140   1.0000000
B2   B   0.331762471171443   0.811233893852631   0.110973030759872   1.0000000
B2   B   0.475669711264562   0.954553613566939   0.110949695892172   1.0000000
B2   B   0.475859816080087   0.093688267791541   0.111000917686702   1.0000000
B2   B   0.475238549758132   0.231603659069917   0.111135157595507   1.0000000
B2   B   0.468635548125511   0.360928443533555   0.111350289757099   1.0000000
B2   B   0.449894811051976   0.506938939947337   0.110156727955133   1.0000000
B2   B   0.462585474435120   0.679279032890448   0.111069803582061   1.0000000
B2   B   0.474537176672870   0.816146447383758   0.111178666310540   1.0000000
B2   B   0.619414123896053   0.953979431421989   0.110982039871543   1.0000000
B2   B   0.619276853078508   0.095332019151165   0.110963725019609   1.0000000
B2   B   0.619596277464270   0.236754628381539   0.111010481758713   1.0000000
B2   B   0.620933322321704   0.378925765866251   0.110961804432019   1.0000000
B2   B   0.640009054935326   0.534364750296509   0.110865889374287   1.0000000
B2   B   0.645432180119005   0.678528405238850   0.111778244336845   1.0000000
B2   B   0.620495570874708   0.812121353503666   0.111120944141818   1.0000000
B2   B   0.763424897274659   0.954056212317742   0.110955318425420   1.0000000
B2   B   0.762075116024440   0.095581202554909   0.111069060039918   1.0000000
B2   B   0.762065919343028   0.237592506877809   0.111007046229682   1.0000000
B2   B   0.763293063654650   0.380166912230372   0.111022752335275   1.0000000
B2   B   0.768472644164467   0.524530540184696   0.110870633046214   1.0000000
B2   B   0.777987408660803   0.673341774721583   0.110788774916519   1.0000000
B2   B   0.770458700912853   0.816405074702318   0.110830804861739   1.0000000
N2   N   0.955863874395543   0.907435048466285   0.111019170178890   1.0000000
N2   N   0.953169394671962   0.048791176239162   0.111112920435426   1.0000000
N2   N   0.951096148140683   0.189908407570185   0.111029680235076   1.0000000
N2   N   0.950897005447931   0.332280981751505   0.110865875744392   1.0000000
N2   N   0.952251896830554   0.475271722083290   0.110912919956882   1.0000000
N2   N   0.955392785290031   0.619050138393999   0.111172207397686   1.0000000
N2   N   0.956426917624529   0.763569813334996   0.111128485602299   1.0000000
N2   N   0.096691014831230   0.905496410584084   0.111051894367590   1.0000000
N2   N   0.095231834114603   0.047415794538264   0.111003912707541   1.0000000
N2   N   0.092224207421108   0.188256135299929   0.110816009448801   1.0000000
N2   N   0.091609046614320   0.331405778799964   0.110819762138906   1.0000000
N2   N   0.091739873449076   0.474894177449585   0.110793133015850   1.0000000
N2   N   0.093979946614480   0.618769728510256   0.110886494250498   1.0000000
N2   N   0.096339292609033   0.762498199756524   0.111026955544412   1.0000000
N2   N   0.238254603948632   0.905124645624476   0.110864404601801   1.0000000
N2   N   0.237805168004926   0.046751402384899   0.110993277956237   1.0000000
N2   N   0.234995685350277   0.187112605051090   0.110812264174937   1.0000000
N2   N   0.230019847918723   0.326889502842459   0.110903032204196   1.0000000
N2   N   0.230437882908882   0.474014981230369   0.111119645638418   1.0000000
N2   N   0.232323977903133   0.618820685856367   0.111019902426838   1.0000000
N2   N   0.236935097550905   0.762662061607624   0.110879294115392   1.0000000
N2   N   0.380542989498299   0.906063640138068   0.110865344517677   1.0000000
N2   N   0.380838183738439   0.047041641238983   0.110978933091343   1.0000000
N2   N   0.379864196766809   0.187492488714779   0.111041759310324   1.0000000
N2   N   0.375121573430322   0.326119500954898   0.111374378518832   1.0000000
N2   N   0.360333381617948   0.464152732579456   0.112181399659855   1.0000000
N2   N   0.369998015360401   0.619884518614728   0.111534788275201   1.0000000
N2   N   0.378473112928327   0.764283094504146   0.111139172113576   1.0000000
N2   N   0.524046466839810   0.909432169129338   0.110987578750933   1.0000000
N2   N   0.524221479197848   0.048364535481941   0.110904293419678   1.0000000
N2   N   0.524336724494254   0.187573336171937   0.110988473609495   1.0000000
N2   N   0.524371715645010   0.325337485683451   0.111243129711174   1.0000000
N2   N   0.522606400291732   0.771567775505651   0.111268509670660   1.0000000
N2   N   0.667860585264210   0.906879789633552   0.110919980684924   1.0000000
N2   N   0.667200744098812   0.048514766073180   0.110972077761404   1.0000000
N2   N   0.667202326466133   0.190081883111505   0.110954393578354   1.0000000
N2   N   0.667999187854635   0.332103972627220   0.110956501152293   1.0000000
N2   N   0.673050850420415   0.475647482860066   0.110716911826718   1.0000000
N2   N   0.686626320527638   0.626622791259233   0.111043609552703   1.0000000
N2   N   0.677193242537997   0.771047379520235   0.111134825659188   1.0000000
N2   N   0.814424001360956   0.909700229386836   0.110806062719886   1.0000000
N2   N   0.809928231359833   0.048540902231183   0.111086105386710   1.0000000
N2   N   0.809280487219364   0.190233047578286   0.111006048562269   1.0000000
N2   N   0.809746961840146   0.332448489141305   0.110968586356598   1.0000000
N2   N   0.812586720413441   0.475351826935608   0.111041159103301   1.0000000
N2   N   0.818132071712406   0.620205303722491   0.110761734651680   1.0000000
N2   N   0.817981268573563   0.767387540590342   0.110731439371171   1.0000000
S2   S   0.523283043642261   0.473270698113814   0.110516723060176   1.0000000


