data_1
_audit_creation_method   'vasp2cif'
_cell_length_a    14.93631414619966
_cell_length_b    14.936314146199727
_cell_length_c    13.341276283792837
_cell_angle_alpha    90.0
_cell_angle_beta    90.0
_cell_angle_gamma    119.99999999999984

_symmetry_space_group_name_H-M    'P 1'
loop_
_atom_site_label
_atom_site_type_symbol
_atom_site_fract_x
_atom_site_fract_y
_atom_site_fract_z
_atom_site_occupancy
As2   As   0.555555555555557   0.444444444444443   0.375000000000000   1.0000000
N2   N   0.111106631894005   0.055543760708603   0.125100804030740   1.0000000
N2   N   0.611129086489368   0.555591506312065   0.125084160817140   1.0000000
N2   N   0.444435094159248   0.055544613029332   0.125178615920861   1.0000000
N2   N   0.944455386970668   0.555564905840751   0.125178615920861   1.0000000
N2   N   0.777774760146028   0.055554046739682   0.125070205151778   1.0000000
N2   N   0.111117527006951   0.722225430170140   0.624893512968686   1.0000000
N2   N   0.444435094159248   0.722223814463252   0.624821384079139   1.0000000
N2   N   0.277761606676483   0.222204566691383   0.624839332393785   1.0000000
N2   N   0.777795433308617   0.722238393323517   0.624839332393785   1.0000000
N2   N   0.611109626681572   0.222204566691383   0.624839332393785   1.0000000
N2   N   0.944445953260318   0.222225239853972   0.624929794848222   1.0000000
N2   N   0.277774569829860   0.722225430170140   0.125106487031314   1.0000000
N2   N   0.111105212946739   0.222219273140034   0.125088990425291   1.0000000
N2   N   0.444446092982515   0.222225519298366   0.125326565852699   1.0000000
N2   N   0.611109626681572   0.722238393323517   0.125160667606215   1.0000000
N2   N   0.944455386970668   0.722223814463252   0.125178615920861   1.0000000
N2   N   0.777780726859966   0.222219273140034   0.125088990425291   1.0000000
N2   N   0.111116122765111   0.888883877234889   0.624889496974811   1.0000000
N2   N   0.444434421136449   0.888883877234889   0.624889496974811   1.0000000
N2   N   0.277761606676483   0.388890373318428   0.624839332393785   1.0000000
N2   N   0.611129086489368   0.388870913510632   0.624915839182860   1.0000000
N2   N   0.777780726859966   0.888894787053262   0.624911009574710   1.0000000
N2   N   0.944456239291397   0.388896204518731   0.624899195969261   1.0000000
N2   N   0.111106631894005   0.388896204518731   0.125100804030740   1.0000000
N2   N   0.277774569829860   0.888882472993049   0.125106487031314   1.0000000
N2   N   0.611103795481270   0.888893368105995   0.125100804030740   1.0000000
N2   N   0.444408493687935   0.388870913510632   0.125084160817140   1.0000000
N2   N   0.944456239291397   0.888893368105995   0.125100804030740   1.0000000
N2   N   0.777795433308617   0.388890373318428   0.125160667606215   1.0000000
N2   N   0.277776185536748   0.555564905840751   0.624821384079139   1.0000000
N2   N   0.111106631894005   0.055543760708603   0.624899195969261   1.0000000
N2   N   0.611129086489368   0.555591506312065   0.624915839182860   1.0000000
N2   N   0.444435094159248   0.055544613029332   0.624821384079139   1.0000000
N2   N   0.944455386970668   0.555564905840751   0.624821384079139   1.0000000
N2   N   0.111116122765111   0.555565578863551   0.125110503025189   1.0000000
N2   N   0.777774760146028   0.055554046739682   0.624929794848222   1.0000000
N2   N   0.277776185536748   0.055544613029332   0.125178615920861   1.0000000
N2   N   0.444446092982515   0.555553907017485   0.125326565852699   1.0000000
N2   N   0.777774480701634   0.555553907017485   0.125326565852699   1.0000000
N2   N   0.611103795481270   0.055543760708603   0.125100804030740   1.0000000
N2   N   0.444446092982515   0.555553907017485   0.624673434147301   1.0000000
N2   N   0.944445953260318   0.055554046739682   0.125070205151778   1.0000000
N2   N   0.277774569829860   0.722225430170140   0.624893512968686   1.0000000
N2   N   0.111105212946739   0.222219273140034   0.624911009574710   1.0000000
N2   N   0.444446092982515   0.222225519298366   0.624673434147301   1.0000000
N2   N   0.611109626681572   0.722238393323517   0.624839332393785   1.0000000
N2   N   0.944455386970668   0.722223814463252   0.624821384079139   1.0000000
N2   N   0.777780726859966   0.222219273140034   0.624911009574710   1.0000000
N2   N   0.111117527006951   0.722225430170140   0.125106487031314   1.0000000
N2   N   0.444435094159248   0.722223814463252   0.125178615920861   1.0000000
N2   N   0.277761606676483   0.222204566691383   0.125160667606215   1.0000000
N2   N   0.777795433308617   0.722238393323517   0.125160667606215   1.0000000
N2   N   0.611109626681572   0.222204566691383   0.125160667606215   1.0000000
N2   N   0.944445953260318   0.222225239853972   0.125070205151778   1.0000000
N2   N   0.111106631894005   0.388896204518731   0.624899195969261   1.0000000
N2   N   0.277774569829860   0.888882472993049   0.624893512968686   1.0000000
N2   N   0.611103795481270   0.888893368105995   0.624899195969261   1.0000000
N2   N   0.444408493687935   0.388870913510632   0.624915839182860   1.0000000
N2   N   0.944456239291397   0.888893368105995   0.624899195969261   1.0000000
N2   N   0.111116122765111   0.888883877234889   0.125110503025189   1.0000000
N2   N   0.777795433308617   0.388890373318428   0.624839332393785   1.0000000
N2   N   0.444434421136449   0.888883877234889   0.125110503025189   1.0000000
N2   N   0.277761606676483   0.388890373318428   0.125160667606215   1.0000000
N2   N   0.277776185536748   0.555564905840751   0.125178615920861   1.0000000
N2   N   0.611129086489368   0.388870913510632   0.125084160817140   1.0000000
N2   N   0.777780726859966   0.888894787053262   0.125088990425291   1.0000000
N2   N   0.944456239291397   0.388896204518731   0.125100804030740   1.0000000
N2   N   0.111116122765111   0.555565578863551   0.624889496974811   1.0000000
N2   N   0.277776185536748   0.055544613029332   0.624821384079139   1.0000000
N2   N   0.777774480701634   0.555553907017485   0.624673434147301   1.0000000
N2   N   0.611103795481270   0.055543760708603   0.624899195969261   1.0000000
N2   N   0.944445953260318   0.055554046739682   0.624929794848222   1.0000000
N2   N   0.054449585577943   0.110400451951212   0.375000000000000   1.0000000
N2   N   0.555967189746776   0.620387402282313   0.375000000000000   1.0000000
N2   N   0.387841502246187   0.109016337825718   0.375000000000000   1.0000000
N2   N   0.890983662174282   0.612158497753813   0.375000000000000   1.0000000
N2   N   0.722617533039933   0.110400451951212   0.375000000000000   1.0000000
N2   N   0.055550247216860   0.777778055958168   0.875000000000000   1.0000000
N2   N   0.388894475407972   0.777778055958168   0.875000000000000   1.0000000
N2   N   0.222220409069523   0.277776871201430   0.875000000000000   1.0000000
N2   N   0.722223128798570   0.777779590930477   0.875000000000000   1.0000000
N2   N   0.555556760251125   0.277780622727623   0.875000000000000   1.0000000
N2   N   0.888889515099326   0.277775922974883   0.875000000000000   1.0000000
N2   N   0.222222222222221   0.777777777777779   0.375000000000000   1.0000000
N2   N   0.054449585577943   0.277382466960067   0.375000000000000   1.0000000
N2   N   0.379612597717686   0.268913120797798   0.375000000000000   1.0000000
N2   N   0.555250416829169   0.781482474129588   0.375000000000000   1.0000000
N2   N   0.892898723967084   0.781482474129588   0.375000000000000   1.0000000
N2   N   0.723973461497837   0.276026538502163   0.375000000000000   1.0000000
N2   N   0.055553406015372   0.944446593984628   0.875000000000000   1.0000000
N2   N   0.388894475407972   0.944449752783140   0.875000000000000   1.0000000
N2   N   0.222220232931187   0.444440033802071   0.875000000000000   1.0000000
N2   N   0.555555555555557   0.444444444444443   0.875000000000000   1.0000000
N2   N   0.722224077025117   0.944446925457779   0.875000000000000   1.0000000
N2   N   0.888886467537549   0.444440033802071   0.875000000000000   1.0000000
N2   N   0.055725361971712   0.444784057276752   0.375000000000000   1.0000000
N2   N   0.221894685638306   0.943562007021187   0.375000000000000   1.0000000
N2   N   0.555215942723248   0.944274638028288   0.375000000000000   1.0000000
N2   N   0.379612597717686   0.444032810253224   0.375000000000000   1.0000000
N2   N   0.889599548048788   0.945550414422056   0.375000000000000   1.0000000
N2   N   0.731086879202202   0.444032810253224   0.375000000000000   1.0000000
N2   N   0.222221944041832   0.611105524592027   0.875000000000000   1.0000000
N2   N   0.055553074542221   0.111110484900674   0.875000000000000   1.0000000
N2   N   0.555556760251125   0.611109470856837   0.875000000000000   1.0000000
N2   N   0.388892751338759   0.111118836010861   0.875000000000000   1.0000000
N2   N   0.888881163989139   0.611107248661241   0.875000000000000   1.0000000
N2   N   0.056437992978813   0.611666011950455   0.375000000000000   1.0000000
N2   N   0.722224077025117   0.111110484900674   0.875000000000000   1.0000000
N2   N   0.218517525870412   0.107101276032916   0.375000000000000   1.0000000
N2   N   0.387841502246187   0.612158497753813   0.375000000000000   1.0000000
N2   N   0.731086879202202   0.620387402282313   0.375000000000000   1.0000000
N2   N   0.555250416829169   0.107101276032916   0.375000000000000   1.0000000
N2   N   0.388892751338759   0.611107248661241   0.875000000000000   1.0000000
N2   N   0.888888888888886   0.111111111111114   0.375000000000000   1.0000000
N2   N   0.222222222222221   0.777777777777779   0.875000000000000   1.0000000
N2   N   0.055553074542221   0.277775922974883   0.875000000000000   1.0000000
N2   N   0.388890529143163   0.277780622727623   0.875000000000000   1.0000000
N2   N   0.555559966197929   0.777779767068813   0.875000000000000   1.0000000
N2   N   0.888886467537549   0.777779767068813   0.875000000000000   1.0000000
N2   N   0.722223128798570   0.277776871201430   0.875000000000000   1.0000000
N2   N   0.056437992978813   0.778105314361694   0.375000000000000   1.0000000
N2   N   0.388333988049545   0.778105314361694   0.375000000000000   1.0000000
N2   N   0.218719743670990   0.276026538502163   0.375000000000000   1.0000000
N2   N   0.723973461497837   0.781280256329009   0.375000000000000   1.0000000
N2   N   0.555967189746776   0.268913120797798   0.375000000000000   1.0000000
N2   N   0.889599548048788   0.277382466960067   0.375000000000000   1.0000000
N2   N   0.055553406015372   0.444440145364073   0.875000000000000   1.0000000
N2   N   0.222221944041832   0.944449752783140   0.875000000000000   1.0000000
N2   N   0.555559854635927   0.944446593984628   0.875000000000000   1.0000000
N2   N   0.388890529143163   0.444443239748876   0.875000000000000   1.0000000
N2   N   0.888889515099326   0.944446925457779   0.875000000000000   1.0000000
N2   N   0.055725361971712   0.944274638028288   0.375000000000000   1.0000000
N2   N   0.722219377272377   0.444443239748876   0.875000000000000   1.0000000
N2   N   0.388333988049545   0.943562007021187   0.375000000000000   1.0000000
N2   N   0.218517525870412   0.444749583170831   0.375000000000000   1.0000000
N2   N   0.221894685638306   0.611666011950455   0.375000000000000   1.0000000
N2   N   0.722617533039933   0.945550414422056   0.375000000000000   1.0000000
N2   N   0.892898723967084   0.444749583170831   0.375000000000000   1.0000000
N2   N   0.055550247216860   0.611105524592027   0.875000000000000   1.0000000
N2   N   0.222220232931187   0.111113532462451   0.875000000000000   1.0000000
N2   N   0.722219377272377   0.611109470856837   0.875000000000000   1.0000000
N2   N   0.555559966197929   0.111113532462451   0.875000000000000   1.0000000
N2   N   0.888888888888886   0.111111111111114   0.875000000000000   1.0000000
B2   B   0.108757510765679   0.053830154011274   0.375000000000000   1.0000000
B2   B   0.624867239126222   0.583067811585773   0.375000000000000   1.0000000
B2   B   0.444080835218219   0.053624084016820   0.375000000000000   1.0000000
B2   B   0.946375915983180   0.555919164781781   0.375000000000000   1.0000000
B2   B   0.778366095615786   0.055849714474561   0.375000000000000   1.0000000
B2   B   0.111115823738059   0.722224578535694   0.875000000000000   1.0000000
B2   B   0.444447031444968   0.722244727985856   0.875000000000000   1.0000000
B2   B   0.277728985676315   0.222191821585324   0.875000000000000   1.0000000
B2   B   0.777808178414677   0.722271014323685   0.875000000000000   1.0000000
B2   B   0.611129502575680   0.222191821585324   0.875000000000000   1.0000000
B2   B   0.944439039593829   0.222211412520994   0.875000000000000   1.0000000
B2   B   0.277493346783612   0.722506653216387   0.375000000000000   1.0000000
B2   B   0.108352327750999   0.220842830542164   0.375000000000000   1.0000000
B2   B   0.442549914799839   0.218433162933013   0.375000000000000   1.0000000
B2   B   0.612641623944765   0.730256126260806   0.375000000000000   1.0000000
B2   B   0.946375915983180   0.723790084534735   0.375000000000000   1.0000000
B2   B   0.779157169457836   0.220842830542164   0.375000000000000   1.0000000
B2   B   0.111107061167246   0.888892938832754   0.875000000000000   1.0000000
B2   B   0.444452544332180   0.888892938832754   0.875000000000000   1.0000000
B2   B   0.277728985676315   0.388870497424320   0.875000000000000   1.0000000
B2   B   0.611130988058829   0.388869011941170   0.875000000000000   1.0000000
B2   B   0.777796463754751   0.888926260842831   0.875000000000000   1.0000000
B2   B   0.944453749732371   0.388873109852968   0.875000000000000   1.0000000
B2   B   0.108757510765679   0.388260690087734   0.375000000000000   1.0000000
B2   B   0.277493346783612   0.888320026900554   0.375000000000000   1.0000000
B2   B   0.611739309912265   0.891242489234320   0.375000000000000   1.0000000
B2   B   0.416932188414228   0.375132760873778   0.375000000000000   1.0000000
B2   B   0.946169845988726   0.891242489234320   0.375000000000000   1.0000000
B2   B   0.784281168982713   0.387358376055235   0.375000000000000   1.0000000
B2   B   0.277755272014144   0.555552968555032   0.875000000000000   1.0000000
B2   B   0.111086026787268   0.055546250267629   0.875000000000000   1.0000000
B2   B   0.611130988058829   0.555595309450988   0.875000000000000   1.0000000
B2   B   0.444447031444968   0.055535636792448   0.875000000000000   1.0000000
B2   B   0.944464363207552   0.555552968555032   0.875000000000000   1.0000000
B2   B   0.111208865253786   0.555751063840901   0.375000000000000   1.0000000
B2   B   0.777788587479007   0.055560960406171   0.875000000000000   1.0000000
B2   B   0.276209915465265   0.053624084016820   0.375000000000000   1.0000000
B2   B   0.442549914799839   0.557450085200161   0.375000000000000   1.0000000
B2   B   0.781566837066987   0.557450085200161   0.375000000000000   1.0000000
B2   B   0.611739309912265   0.053830154011274   0.375000000000000   1.0000000
B2   B   0.444427712780513   0.555572287219487   0.875000000000000   1.0000000
B2   B   0.944150285525440   0.055849714474561   0.375000000000000   1.0000000
B2   B   0.277775421464306   0.722224578535694   0.875000000000000   1.0000000
B2   B   0.111073739157169   0.222203536245249   0.875000000000000   1.0000000
B2   B   0.444427712780513   0.222188758894361   0.875000000000000   1.0000000
B2   B   0.611129502575680   0.722271014323685   0.875000000000000   1.0000000
B2   B   0.944464363207552   0.722244727985856   0.875000000000000   1.0000000
B2   B   0.777796463754751   0.222203536245249   0.875000000000000   1.0000000
B2   B   0.111679973099446   0.722506653216387   0.375000000000000   1.0000000
B2   B   0.444080835218219   0.723790084534735   0.375000000000000   1.0000000
B2   B   0.269743873739194   0.215718831017287   0.375000000000000   1.0000000
B2   B   0.784281168982713   0.730256126260807   0.375000000000000   1.0000000
B2   B   0.612641623944765   0.215718831017287   0.375000000000000   1.0000000
B2   B   0.944150285525440   0.221633904384214   0.375000000000000   1.0000000
B2   B   0.111086026787268   0.388873109852968   0.875000000000000   1.0000000
B2   B   0.277775421464306   0.888884176261941   0.875000000000000   1.0000000
B2   B   0.611126890147032   0.888913973212732   0.875000000000000   1.0000000
B2   B   0.444404690549012   0.388869011941170   0.875000000000000   1.0000000
B2   B   0.944453749732371   0.888913973212732   0.875000000000000   1.0000000
B2   B   0.111208865253786   0.888791134746214   0.375000000000000   1.0000000
B2   B   0.777808178414677   0.388870497424320   0.875000000000000   1.0000000
B2   B   0.444248936159099   0.888791134746214   0.375000000000000   1.0000000
B2   B   0.269743873739194   0.387358376055235   0.375000000000000   1.0000000
B2   B   0.276209915465265   0.555919164781781   0.375000000000000   1.0000000
B2   B   0.624867239126222   0.375132760873778   0.375000000000000   1.0000000
B2   B   0.779157169457836   0.891647672249002   0.375000000000000   1.0000000
B2   B   0.946169845988726   0.388260690087734   0.375000000000000   1.0000000
B2   B   0.111107061167246   0.555547455667820   0.875000000000000   1.0000000
B2   B   0.277755272014144   0.055535636792448   0.875000000000000   1.0000000
B2   B   0.777811241105639   0.555572287219487   0.875000000000000   1.0000000
B2   B   0.611126890147032   0.055546250267629   0.875000000000000   1.0000000
B2   B   0.944439039593829   0.055560960406171   0.875000000000000   1.0000000
B2   B   0.055511720392489   0.111077725440284   0.124897118208812   1.0000000
B2   B   0.555530900679794   0.611274667523687   0.124624344927178   1.0000000
B2   B   0.388801893828443   0.110937120990230   0.124901958382925   1.0000000
B2   B   0.889062879009770   0.611198106171557   0.124901958382925   1.0000000
B2   B   0.722232671714459   0.111077725440284   0.124897118208812   1.0000000
B2   B   0.055627766551220   0.777807160241534   0.625092728411436   1.0000000
B2   B   0.388846060356979   0.777807160241534   0.625092728411436   1.0000000
B2   B   0.222093035870640   0.277713184601988   0.625186762666706   1.0000000
B2   B   0.722286815398012   0.777906964129360   0.625186762666706   1.0000000
B2   B   0.555530900679794   0.277589566489443   0.625375655072822   1.0000000
B2   B   0.888922274559717   0.277767328285541   0.625102881791188   1.0000000
B2   B   0.222222222222221   0.777777777777779   0.124901388913046   1.0000000
B2   B   0.055511720392489   0.277767328285541   0.124897118208812   1.0000000
B2   B   0.388725332476313   0.277589566489443   0.124624344927178   1.0000000
B2   B   0.555534046530294   0.777873765008868   0.124874906180759   1.0000000
B2   B   0.889006385145239   0.777873765008868   0.124874906180759   1.0000000
B2   B   0.722286815398012   0.277713184601988   0.124813237333294   1.0000000
B2   B   0.055566080749647   0.944433919250353   0.625100098816313   1.0000000
B2   B   0.388846060356979   0.944372233448780   0.625092728411436   1.0000000
B2   B   0.222126234991132   0.444465953469707   0.625125093819241   1.0000000
B2   B   0.555555555555557   0.444444444444443   0.625820043583474   1.0000000
B2   B   0.722232671714459   0.944488279607511   0.625102881791188   1.0000000
B2   B   0.889006385145239   0.444465953469707   0.625125093819241   1.0000000
B2   B   0.055566080749647   0.444465494832623   0.124899901183687   1.0000000
B2   B   0.222192839758466   0.944372233448780   0.124907271588563   1.0000000
B2   B   0.555534505167378   0.944433919250353   0.124899901183687   1.0000000
B2   B   0.388725332476313   0.444469099320206   0.124624344927178   1.0000000
B2   B   0.888922274559717   0.944488279607511   0.124897118208812   1.0000000
B2   B   0.722410433510557   0.444469099320206   0.124624344927178   1.0000000
B2   B   0.222192839758466   0.611153939643022   0.625092728411436   1.0000000
B2   B   0.055511720392489   0.111077725440284   0.625102881791188   1.0000000
B2   B   0.555530900679794   0.611274667523687   0.625375655072822   1.0000000
B2   B   0.388801893828443   0.110937120990230   0.625098041617074   1.0000000
B2   B   0.889062879009770   0.611198106171557   0.625098041617074   1.0000000
B2   B   0.055627766551220   0.611153939643022   0.124907271588563   1.0000000
B2   B   0.722232671714459   0.111077725440284   0.625102881791188   1.0000000
B2   B   0.222126234991132   0.110993614854761   0.124874906180759   1.0000000
B2   B   0.388801893828443   0.611198106171557   0.124901958382925   1.0000000
B2   B   0.722410433510557   0.611274667523687   0.124624344927178   1.0000000
B2   B   0.555534046530294   0.110993614854761   0.124874906180759   1.0000000
B2   B   0.388801893828443   0.611198106171557   0.625098041617074   1.0000000
B2   B   0.888888888888886   0.111111111111114   0.124909795274449   1.0000000
B2   B   0.222222222222221   0.777777777777779   0.625098611086954   1.0000000
B2   B   0.055511720392489   0.277767328285541   0.625102881791188   1.0000000
B2   B   0.388725332476313   0.277589566489443   0.625375655072822   1.0000000
B2   B   0.555534046530294   0.777873765008868   0.625125093819241   1.0000000
B2   B   0.889006385145239   0.777873765008868   0.625125093819241   1.0000000
B2   B   0.722286815398012   0.277713184601988   0.625186762666706   1.0000000
B2   B   0.055627766551220   0.777807160241534   0.124907271588563   1.0000000
B2   B   0.388846060356979   0.777807160241534   0.124907271588563   1.0000000
B2   B   0.222093035870640   0.277713184601988   0.124813237333294   1.0000000
B2   B   0.722286815398012   0.777906964129360   0.124813237333294   1.0000000
B2   B   0.555530900679794   0.277589566489443   0.124624344927178   1.0000000
B2   B   0.888922274559717   0.277767328285541   0.124897118208812   1.0000000
B2   B   0.055566080749647   0.444465494832623   0.625100098816313   1.0000000
B2   B   0.222192839758466   0.944372233448780   0.625092728411436   1.0000000
B2   B   0.555534505167378   0.944433919250353   0.625100098816313   1.0000000
B2   B   0.388725332476313   0.444469099320206   0.625375655072822   1.0000000
B2   B   0.888922274559717   0.944488279607511   0.625102881791188   1.0000000
B2   B   0.055566080749647   0.944433919250353   0.124899901183687   1.0000000
B2   B   0.722410433510557   0.444469099320206   0.625375655072822   1.0000000
B2   B   0.388846060356979   0.944372233448780   0.124907271588563   1.0000000
B2   B   0.222126234991132   0.444465953469707   0.124874906180759   1.0000000
B2   B   0.222192839758466   0.611153939643022   0.124907271588563   1.0000000
B2   B   0.555555555555557   0.444444444444443   0.124179956416526   1.0000000
B2   B   0.722232671714459   0.944488279607511   0.124897118208812   1.0000000
B2   B   0.889006385145239   0.444465953469707   0.124874906180759   1.0000000
B2   B   0.055627766551220   0.611153939643022   0.625092728411436   1.0000000
B2   B   0.222126234991132   0.110993614854761   0.625125093819241   1.0000000
B2   B   0.722410433510557   0.611274667523687   0.625375655072822   1.0000000
B2   B   0.555534046530294   0.110993614854761   0.625125093819241   1.0000000
B2   B   0.888888888888886   0.111111111111114   0.625090204725551   1.0000000


