data_1
_audit_creation_method   'vasp2cif'
_cell_length_a    14.93631414619966
_cell_length_b    14.936314146199727
_cell_length_c    13.341276283792837
_cell_angle_alpha    90.0
_cell_angle_beta    90.0
_cell_angle_gamma    119.99999999999984

_symmetry_space_group_name_H-M    'P 1'
loop_
_atom_site_label
_atom_site_type_symbol
_atom_site_fract_x
_atom_site_fract_y
_atom_site_fract_z
_atom_site_occupancy
C2   C   0.444444444444443   0.388888888888886   0.375000000000000   1.0000000
N2   N   0.111112171902113   0.055554836800853   0.125082417809951   1.0000000
N2   N   0.611099360291739   0.555536969597640   0.125313918733614   1.0000000
N2   N   0.444442664898740   0.055554836800853   0.125082417809951   1.0000000
N2   N   0.944443864665708   0.555554646363277   0.125057793516574   1.0000000
N2   N   0.777777777777779   0.055555555555557   0.125031611083559   1.0000000
N2   N   0.111111111111114   0.722222222222221   0.624970504011266   1.0000000
N2   N   0.444442664898740   0.722221161431223   0.624917582190049   1.0000000
N2   N   0.277796363735696   0.222233973041596   0.624686081266386   1.0000000
N2   N   0.777778496532483   0.722221161431223   0.624917582190049   1.0000000
N2   N   0.611103360470759   0.222229972862577   0.624874754889101   1.0000000
N2   N   0.944450364885466   0.222226355860368   0.624941145617249   1.0000000
N2   N   0.277778686970059   0.722222551635766   0.125057793516574   1.0000000
N2   N   0.111126612391818   0.222229972862577   0.125125245110899   1.0000000
N2   N   0.444437609305901   0.222233973041596   0.125313918733614   1.0000000
N2   N   0.611103360470759   0.722206720941518   0.125125245110899   1.0000000
N2   N   0.944443864665708   0.722222551635766   0.125057793516574   1.0000000
N2   N   0.777775990974895   0.222226355860368   0.125058854382750   1.0000000
N2   N   0.111110781697569   0.888889468667621   0.624942206483426   1.0000000
N2   N   0.444443829891207   0.888888581612268   0.624940776373163   1.0000000
N2   N   0.277796363735696   0.388895724027428   0.624686081266386   1.0000000
N2   N   0.611099360291739   0.388895724027428   0.624686081266386   1.0000000
N2   N   0.777775990974895   0.888882968447863   0.624941145617249   1.0000000
N2   N   0.944444751721061   0.388889503442122   0.624940776373163   1.0000000
N2   N   0.111112171902113   0.388890668434589   0.125082417809951   1.0000000
N2   N   0.277778686970059   0.888889468667621   0.125057793516574   1.0000000
N2   N   0.611106977472967   0.888882968447863   0.125058854382750   1.0000000
N2   N   0.444444444444443   0.388888888888886   0.125316998699944   1.0000000
N2   N   0.944444751721061   0.888888581612268   0.125059223626837   1.0000000
N2   N   0.777778496532483   0.388890668434589   0.125082417809951   1.0000000
N2   N   0.277778596723757   0.555554736609579   0.624873617672329   1.0000000
N2   N   0.111112171902113   0.055554836800853   0.624917582190049   1.0000000
N2   N   0.611099360291739   0.555536969597640   0.624686081266386   1.0000000
N2   N   0.444442664898740   0.055554836800853   0.624917582190049   1.0000000
N2   N   0.944443864665708   0.555554646363277   0.624942206483426   1.0000000
N2   N   0.111110781697569   0.555554646363277   0.125057793516574   1.0000000
N2   N   0.777777777777779   0.055555555555557   0.624968388916441   1.0000000
N2   N   0.277778596723757   0.055557193447521   0.125126382327671   1.0000000
N2   N   0.444437609305901   0.555536969597640   0.125313918733614   1.0000000
N2   N   0.777776139885814   0.555554736609579   0.125126382327671   1.0000000
N2   N   0.611106977472967   0.055557342358440   0.125058854382750   1.0000000
N2   N   0.444437609305901   0.555536969597640   0.624686081266386   1.0000000
N2   N   0.944450364885466   0.055557342358440   0.125058854382750   1.0000000
N2   N   0.277778686970059   0.722222551635766   0.624942206483426   1.0000000
N2   N   0.111126612391818   0.222229972862577   0.624874754889101   1.0000000
N2   N   0.444437609305901   0.222233973041596   0.624686081266386   1.0000000
N2   N   0.611103360470759   0.722206720941518   0.624874754889101   1.0000000
N2   N   0.944443864665708   0.722222551635766   0.624942206483426   1.0000000
N2   N   0.777775990974895   0.222226355860368   0.624941145617249   1.0000000
N2   N   0.111111111111114   0.722222222222221   0.125029495988734   1.0000000
N2   N   0.444442664898740   0.722221161431223   0.125082417809951   1.0000000
N2   N   0.277796363735696   0.222233973041596   0.125313918733614   1.0000000
N2   N   0.777778496532483   0.722221161431223   0.125082417809951   1.0000000
N2   N   0.611103360470759   0.222229972862577   0.125125245110899   1.0000000
N2   N   0.944450364885466   0.222226355860368   0.125058854382750   1.0000000
N2   N   0.111112171902113   0.388890668434589   0.624917582190049   1.0000000
N2   N   0.277778686970059   0.888889468667621   0.624942206483426   1.0000000
N2   N   0.611106977472967   0.888882968447863   0.624941145617249   1.0000000
N2   N   0.444444444444443   0.388888888888886   0.624683001300056   1.0000000
N2   N   0.944444751721061   0.888888581612268   0.624940776373163   1.0000000
N2   N   0.111110781697569   0.888889468667621   0.125057793516574   1.0000000
N2   N   0.777778496532483   0.388890668434589   0.624917582190049   1.0000000
N2   N   0.444443829891207   0.888888581612268   0.125059223626837   1.0000000
N2   N   0.277796363735696   0.388895724027428   0.125313918733614   1.0000000
N2   N   0.277778596723757   0.555554736609579   0.125126382327671   1.0000000
N2   N   0.611099360291739   0.388895724027428   0.125313918733614   1.0000000
N2   N   0.777775990974895   0.888882968447863   0.125058854382750   1.0000000
N2   N   0.944444751721061   0.388889503442122   0.125059223626837   1.0000000
N2   N   0.111110781697569   0.555554646363277   0.624942206483426   1.0000000
N2   N   0.277778596723757   0.055557193447521   0.624873617672329   1.0000000
N2   N   0.777776139885814   0.555554736609579   0.624873617672329   1.0000000
N2   N   0.611106977472967   0.055557342358440   0.624941145617249   1.0000000
N2   N   0.944450364885466   0.055557342358440   0.624941145617249   1.0000000
N2   N   0.055730547879346   0.111198422287599   0.375000000000000   1.0000000
N2   N   0.555570539314729   0.611141078629450   0.375000000000000   1.0000000
N2   N   0.389234106050810   0.112888469843278   0.375000000000000   1.0000000
N2   N   0.888265042668414   0.610799188000878   0.375000000000000   1.0000000
N2   N   0.722194596986715   0.111138736346621   0.375000000000000   1.0000000
N2   N   0.055553933219813   0.777779400113523   0.875000000000000   1.0000000
N2   N   0.388890444998058   0.777778579594574   0.875000000000000   1.0000000
N2   N   0.222224118783223   0.277778726058276   0.875000000000000   1.0000000
N2   N   0.722220620694563   0.777779544006038   0.875000000000000   1.0000000
N2   N   0.555554607275060   0.277778726058276   0.875000000000000   1.0000000
N2   N   0.888889570670727   0.277779141341462   0.875000000000000   1.0000000
N2   N   0.222340148597891   0.777836740965610   0.375000000000000   1.0000000
N2   N   0.055730547879346   0.277865458925083   0.375000000000000   1.0000000
N2   N   0.391890800680433   0.283781601360874   0.375000000000000   1.0000000
N2   N   0.555467874408260   0.777602785453990   0.375000000000000   1.0000000
N2   N   0.888410758632946   0.777410827433088   0.375000000000000   1.0000000
N2   N   0.722134911045737   0.277865458925083   0.375000000000000   1.0000000
N2   N   0.055554753738762   0.944445198736819   0.875000000000000   1.0000000
N2   N   0.388890444998058   0.944445198736819   0.875000000000000   1.0000000
N2   N   0.222225427452109   0.444441580242710   0.875000000000000   1.0000000
N2   N   0.555555102830023   0.444444218081676   0.875000000000000   1.0000000
N2   N   0.722221669079795   0.944443338159589   0.875000000000000   1.0000000
N2   N   0.888888134596509   0.444442888335271   0.875000000000000   1.0000000
N2   N   0.055922505900248   0.444333264533194   0.375000000000000   1.0000000
N2   N   0.222534145332457   0.945068290664915   0.375000000000000   1.0000000
N2   N   0.555505189308758   0.944419261321039   0.375000000000000   1.0000000
N2   N   0.391890800680433   0.441442532652895   0.375000000000000   1.0000000
N2   N   0.888914072012289   0.944419261321039   0.375000000000000   1.0000000
N2   N   0.720444863490058   0.444099227282518   0.375000000000000   1.0000000
N2   N   0.222224360855718   0.611108972477618   0.875000000000000   1.0000000
N2   N   0.055553789327297   0.111112712638773   0.875000000000000   1.0000000
N2   N   0.555554607275060   0.611109214550113   0.875000000000000   1.0000000
N2   N   0.388891753090619   0.111117180542735   0.875000000000000   1.0000000
N2   N   0.888884611621886   0.611108972477618   0.875000000000000   1.0000000
N2   N   0.055496592367719   0.610993184735445   0.375000000000000   1.0000000
N2   N   0.722221669079795   0.111111664253541   0.875000000000000   1.0000000
N2   N   0.223654363792461   0.112888469843278   0.375000000000000   1.0000000
N2   N   0.389234106050810   0.609678969540875   0.375000000000000   1.0000000
N2   N   0.720444863490058   0.609678969540875   0.375000000000000   1.0000000
N2   N   0.555467874408260   0.111198422287599   0.375000000000000   1.0000000
N2   N   0.388891753090619   0.611107905881227   0.875000000000000   1.0000000
N2   N   0.888944139359899   0.111138736346621   0.375000000000000   1.0000000
N2   N   0.222225466893717   0.777779400113523   0.875000000000000   1.0000000
N2   N   0.055553789327297   0.277774410021860   0.875000000000000   1.0000000
N2   N   0.388889115251653   0.277778230503313   0.875000000000000   1.0000000
N2   N   0.555558923311476   0.777779544006038   0.875000000000000   1.0000000
N2   N   0.888888134596509   0.777778579594574   0.875000000000000   1.0000000
N2   N   0.722220620694563   0.277774410021860   0.875000000000000   1.0000000
N2   N   0.055496592367719   0.777836740965610   0.375000000000000   1.0000000
N2   N   0.389000068800134   0.777410827433088   0.375000000000000   1.0000000
N2   N   0.222192254703885   0.277762794018607   0.375000000000000   1.0000000
N2   N   0.722134911045737   0.777602785453990   0.375000000000000   1.0000000
N2   N   0.555570539314729   0.277762794018607   0.375000000000000   1.0000000
N2   N   0.888914072012289   0.277828144024578   0.375000000000000   1.0000000
N2   N   0.055554753738762   0.444442888335271   0.875000000000000   1.0000000
N2   N   0.222224360855718   0.944448721711443   0.875000000000000   1.0000000
N2   N   0.555554191991874   0.944443762662601   0.875000000000000   1.0000000
N2   N   0.388889115251653   0.444444218081676   0.875000000000000   1.0000000
N2   N   0.888889570670727   0.944443762662601   0.875000000000000   1.0000000
N2   N   0.055922505900248   0.944922574700382   0.375000000000000   1.0000000
N2   N   0.722216152790601   0.444441580242710   0.875000000000000   1.0000000
N2   N   0.389000068800134   0.944922574700382   0.375000000000000   1.0000000
N2   N   0.223654363792461   0.444099227282518   0.375000000000000   1.0000000
N2   N   0.222534145332457   0.610799188000878   0.375000000000000   1.0000000
N2   N   0.549551731972462   0.441442532652895   0.375000000000000   1.0000000
N2   N   0.722194596986715   0.944389193973429   0.375000000000000   1.0000000
N2   N   0.888410758632946   0.444333264533194   0.375000000000000   1.0000000
N2   N   0.055553933219813   0.611107866439618   0.875000000000000   1.0000000
N2   N   0.222225427452109   0.111117180542735   0.875000000000000   1.0000000
N2   N   0.722216152790601   0.611107905881227   0.875000000000000   1.0000000
N2   N   0.555558923311476   0.111112712638773   0.875000000000000   1.0000000
N2   N   0.888889995173740   0.111111664253541   0.875000000000000   1.0000000
B2   B   0.111542339611045   0.056040850598491   0.375000000000000   1.0000000
B2   B   0.609962057104353   0.555952553620080   0.375000000000000   1.0000000
B2   B   0.444498510987446   0.056040850598491   0.375000000000000   1.0000000
B2   B   0.944270078229431   0.555554943280534   0.375000000000000   1.0000000
B2   B   0.777777777777779   0.055555555555557   0.375000000000000   1.0000000
B2   B   0.111111111111114   0.722222222222221   0.875000000000000   1.0000000
B2   B   0.444450326339610   0.722243100245909   0.875000000000000   1.0000000
B2   B   0.277752048997040   0.222206130135494   0.875000000000000   1.0000000
B2   B   0.777792773906306   0.722243100245909   0.875000000000000   1.0000000
B2   B   0.611122418349267   0.222210914984069   0.875000000000000   1.0000000
B2   B   0.944427887013180   0.222217138574168   0.875000000000000   1.0000000
B2   B   0.277778390052802   0.722048468282232   0.375000000000000   1.0000000
B2   B   0.110363882438213   0.221848607885774   0.375000000000000   1.0000000
B2   B   0.445990496515727   0.223371276228983   0.375000000000000   1.0000000
B2   B   0.611484725447561   0.722969450895123   0.375000000000000   1.0000000
B2   B   0.944270078229431   0.722048468282232   0.375000000000000   1.0000000
B2   B   0.777928357001939   0.222239706762364   0.375000000000000   1.0000000
B2   B   0.111112125091572   0.888886392242216   0.875000000000000   1.0000000
B2   B   0.444455119399852   0.888894226366587   0.875000000000000   1.0000000
B2   B   0.277752048997040   0.388879252194876   0.875000000000000   1.0000000
B2   B   0.611127203197842   0.388879252194876   0.875000000000000   1.0000000
B2   B   0.777789251560988   0.888905446320149   0.875000000000000   1.0000000
B2   B   0.944439106966742   0.388878213933477   0.875000000000000   1.0000000
B2   B   0.111542339611045   0.388834822345883   0.375000000000000   1.0000000
B2   B   0.277778390052802   0.889063255103898   0.375000000000000   1.0000000
B2   B   0.611093626570972   0.889021983572903   0.375000000000000   1.0000000
B2   B   0.944443703831140   0.888889629502189   0.375000000000000   1.0000000
B2   B   0.777292482734845   0.388834822345883   0.375000000000000   1.0000000
B2   B   0.277765730160492   0.555567603172844   0.875000000000000   1.0000000
B2   B   0.111090233087427   0.055540559427030   0.875000000000000   1.0000000
B2   B   0.611127203197842   0.555581284336295   0.875000000000000   1.0000000
B2   B   0.444450326339610   0.055540559427030   0.875000000000000   1.0000000
B2   B   0.944446941091112   0.555559066182684   0.875000000000000   1.0000000
B2   B   0.111284865051103   0.555554943280534   0.375000000000000   1.0000000
B2   B   0.777777777777779   0.055555555555557   0.875000000000000   1.0000000
B2   B   0.277985804552875   0.055971609105743   0.375000000000000   1.0000000
B2   B   0.445990496515727   0.555952553620080   0.375000000000000   1.0000000
B2   B   0.777361724227593   0.555347528780461   0.375000000000000   1.0000000
B2   B   0.611093626570972   0.055404976331397   0.375000000000000   1.0000000
B2   B   0.444454081138453   0.555581284336295   0.875000000000000   1.0000000
B2   B   0.944311349760425   0.055404976331397   0.375000000000000   1.0000000
B2   B   0.277774267150652   0.722221208241764   0.875000000000000   1.0000000
B2   B   0.111088496634816   0.222210914984069   0.875000000000000   1.0000000
B2   B   0.444454081138453   0.222206130135494   0.875000000000000   1.0000000
B2   B   0.611122418349267   0.722244836698520   0.875000000000000   1.0000000
B2   B   0.944446941091112   0.722221208241764   0.875000000000000   1.0000000
B2   B   0.777789251560988   0.222217138574168   0.875000000000000   1.0000000
B2   B   0.111111111111114   0.722222222222221   0.375000000000000   1.0000000
B2   B   0.444498510987446   0.721790993722291   0.375000000000000   1.0000000
B2   B   0.277380779713256   0.223371276228983   0.375000000000000   1.0000000
B2   B   0.777292482734845   0.721790993722291   0.375000000000000   1.0000000
B2   B   0.611484725447561   0.221848607885774   0.375000000000000   1.0000000
B2   B   0.944311349760425   0.222239706762364   0.375000000000000   1.0000000
B2   B   0.111090233087427   0.388883006993719   0.875000000000000   1.0000000
B2   B   0.277774267150652   0.888886392242216   0.875000000000000   1.0000000
B2   B   0.611116194759168   0.888905446320149   0.875000000000000   1.0000000
B2   B   0.444444444444443   0.388888888888886   0.875000000000000   1.0000000
B2   B   0.944439106966742   0.888894226366587   0.875000000000000   1.0000000
B2   B   0.111284865051103   0.889063255103898   0.375000000000000   1.0000000
B2   B   0.777792773906306   0.388883006993719   0.875000000000000   1.0000000
B2   B   0.444445925671049   0.888889629502189   0.375000000000000   1.0000000
B2   B   0.277380779713256   0.387342836817602   0.375000000000000   1.0000000
B2   B   0.277985804552875   0.555347528780461   0.375000000000000   1.0000000
B2   B   0.609962057104353   0.387342836817602   0.375000000000000   1.0000000
B2   B   0.777928357001939   0.889021983572903   0.375000000000000   1.0000000
B2   B   0.944443703831140   0.388887407662280   0.375000000000000   1.0000000
B2   B   0.111112125091572   0.555559066182684   0.875000000000000   1.0000000
B2   B   0.277765730160492   0.055531460320984   0.875000000000000   1.0000000
B2   B   0.777801873012352   0.555567603172844   0.875000000000000   1.0000000
B2   B   0.611116194759168   0.055544081772348   0.875000000000000   1.0000000
B2   B   0.944427887013180   0.055544081772348   0.875000000000000   1.0000000
B2   B   0.055521225676524   0.111055304102136   0.124991518951800   1.0000000
B2   B   0.555600363160852   0.611200726321705   0.124967423942224   1.0000000
B2   B   0.388859060513964   0.110990635062858   0.125003328654492   1.0000000
B2   B   0.888956581085581   0.611144957209458   0.125023680081747   1.0000000
B2   B   0.722236442343360   0.111096890989976   0.124998214793693   1.0000000
B2   B   0.055571732475998   0.777761600857338   0.624982126640010   1.0000000
B2   B   0.388879766191500   0.777789634860530   0.624993880883886   1.0000000
B2   B   0.222132607011630   0.277732970172483   0.625032576057776   1.0000000
B2   B   0.722278029231199   0.777812107656812   0.625008481048200   1.0000000
B2   B   0.555600363160852   0.277732970172483   0.625032576057776   1.0000000
B2   B   0.888890586322416   0.277781172644831   0.624989746227436   1.0000000
B2   B   0.222189868381347   0.777761600857338   0.125017873359990   1.0000000
B2   B   0.055521225676524   0.277799254907716   0.124991518951800   1.0000000
B2   B   0.388865793963690   0.277731587927381   0.124683250677651   1.0000000
B2   B   0.555534078425620   0.777812107656812   0.124991518951800   1.0000000
B2   B   0.888909868669023   0.777789634860530   0.125006119116114   1.0000000
B2   B   0.722278029231199   0.277799254907716   0.124991518951800   1.0000000
B2   B   0.055543698472805   0.944423464664306   0.624993880883886   1.0000000
B2   B   0.388879766191500   0.944423464664306   0.624993880883886   1.0000000
B2   B   0.222131574548887   0.444474272819364   0.624996671345508   1.0000000
B2   B   0.555601745405955   0.444467539369638   0.625316749322348   1.0000000
B2   B   0.722236442343360   0.944472884686713   0.625001785206306   1.0000000
B2   B   0.888909868669023   0.444453567141828   0.624993880883886   1.0000000
B2   B   0.055543698472805   0.444453567141828   0.125006119116114   1.0000000
B2   B   0.222188376123877   0.944376752247747   0.125023680081747   1.0000000
B2   B   0.555552160688505   0.944442747010913   0.125010253772564   1.0000000
B2   B   0.388865793963690   0.444467539369638   0.124683250677651   1.0000000
B2   B   0.888890586322416   0.944442747010913   0.125010253772564   1.0000000
B2   B   0.722342698270477   0.444474272819364   0.125003328654492   1.0000000
B2   B   0.222188376123877   0.611144957209458   0.624976319918254   1.0000000
B2   B   0.055521225676524   0.111055304102136   0.625008481048200   1.0000000
B2   B   0.555600363160852   0.611200726321705   0.625032576057776   1.0000000
B2   B   0.388859060513964   0.110990635062858   0.624996671345508   1.0000000
B2   B   0.888956581085581   0.611144957209458   0.624976319918254   1.0000000
B2   B   0.055571732475998   0.611143464951989   0.125017873359990   1.0000000
B2   B   0.722236442343360   0.111096890989976   0.625001785206306   1.0000000
B2   B   0.222131574548887   0.110990635062858   0.125003328654492   1.0000000
B2   B   0.388859060513964   0.611201758784449   0.125003328654492   1.0000000
B2   B   0.722342698270477   0.611201758784449   0.125003328654492   1.0000000
B2   B   0.555534078425620   0.111055304102136   0.124991518951800   1.0000000
B2   B   0.388859060513964   0.611201758784449   0.624996671345508   1.0000000
B2   B   0.888860448646616   0.111096890989976   0.124998214793693   1.0000000
B2   B   0.222189868381347   0.777761600857338   0.624982126640010   1.0000000
B2   B   0.055521225676524   0.277799254907716   0.625008481048200   1.0000000
B2   B   0.388865793963690   0.277731587927381   0.625316749322348   1.0000000
B2   B   0.555534078425620   0.777812107656812   0.625008481048200   1.0000000
B2   B   0.888909868669023   0.777789634860530   0.624993880883886   1.0000000
B2   B   0.722278029231199   0.277799254907716   0.625008481048200   1.0000000
B2   B   0.055571732475998   0.777761600857338   0.125017873359990   1.0000000
B2   B   0.388879766191500   0.777789634860530   0.125006119116114   1.0000000
B2   B   0.222132607011630   0.277732970172483   0.124967423942224   1.0000000
B2   B   0.722278029231199   0.777812107656812   0.124991518951800   1.0000000
B2   B   0.555600363160852   0.277732970172483   0.124967423942224   1.0000000
B2   B   0.888890586322416   0.277781172644831   0.125010253772564   1.0000000
B2   B   0.055543698472805   0.444453567141828   0.624993880883886   1.0000000
B2   B   0.222188376123877   0.944376752247747   0.624976319918254   1.0000000
B2   B   0.555552160688505   0.944442747010913   0.624989746227436   1.0000000
B2   B   0.388865793963690   0.444467539369638   0.625316749322348   1.0000000
B2   B   0.888890586322416   0.944442747010913   0.624989746227436   1.0000000
B2   B   0.055543698472805   0.944423464664306   0.125006119116114   1.0000000
B2   B   0.722342698270477   0.444474272819364   0.624996671345508   1.0000000
B2   B   0.388879766191500   0.944423464664306   0.125006119116114   1.0000000
B2   B   0.222131574548887   0.444474272819364   0.125003328654492   1.0000000
B2   B   0.222188376123877   0.611144957209458   0.125023680081747   1.0000000
B2   B   0.555601745405955   0.444467539369638   0.124683250677651   1.0000000
B2   B   0.722236442343360   0.944472884686713   0.124998214793693   1.0000000
B2   B   0.888909868669023   0.444453567141828   0.125006119116114   1.0000000
B2   B   0.055571732475998   0.611143464951989   0.624982126640010   1.0000000
B2   B   0.222131574548887   0.110990635062858   0.624996671345508   1.0000000
B2   B   0.722342698270477   0.611201758784449   0.624996671345508   1.0000000
B2   B   0.555534078425620   0.111055304102136   0.625008481048200   1.0000000
B2   B   0.888860448646616   0.111096890989976   0.625001785206306   1.0000000


