data_1
_audit_creation_method   'vasp2cif'
_cell_length_a    17.52789999999977
_cell_length_b    17.52789999999977
_cell_length_c    15.0
_cell_angle_alpha    90.0
_cell_angle_beta    90.0
_cell_angle_gamma    119.99999999999916

_symmetry_space_group_name_H-M    'P 1'
loop_
_atom_site_label
_atom_site_type_symbol
_atom_site_fract_x
_atom_site_fract_y
_atom_site_fract_z
_atom_site_occupancy
Al2   Al   0.440202141473299   0.505816273360650   0.111104333813722   1.0000000
B2   B   0.904709062675209   0.952489544648862   0.110982686788859   1.0000000
B2   B   0.906391660551300   0.096360409032053   0.111032908162663   1.0000000
B2   B   0.906916718884902   0.239172706287953   0.111101978500854   1.0000000
B2   B   0.906391660551300   0.381459945210244   0.111032908162663   1.0000000
B2   B   0.904709062675209   0.523649923274349   0.110982686788859   1.0000000
B2   B   0.902944358183096   0.665860544541858   0.111032775295244   1.0000000
B2   B   0.902944358183096   0.808514218889242   0.111032775295244   1.0000000
B2   B   0.046615695158211   0.951507736838720   0.110987340078306   1.0000000
B2   B   0.048274026201071   0.095377041215915   0.111001442854936   1.0000000
B2   B   0.050189398850506   0.239531595800156   0.111034871905006   1.0000000
B2   B   0.050189398850506   0.382088208297349   0.111034871905006   1.0000000
B2   B   0.048274026201071   0.524327390233149   0.111001442854936   1.0000000
B2   B   0.046615695158211   0.666540075123488   0.110987340078306   1.0000000
B2   B   0.046185469596586   0.808808793200294   0.110967330810958   1.0000000
B2   B   0.189532712532833   0.951421370990985   0.110992808591657   1.0000000
B2   B   0.189928012189690   0.093750163515062   0.111061686588154   1.0000000
B2   B   0.192036234229064   0.238041120291021   0.111033290881670   1.0000000
B2   B   0.195038185732470   0.383234295489734   0.111052409894690   1.0000000
B2   B   0.192036234229064   0.525425519186044   0.111033290881670   1.0000000
B2   B   0.189928012189690   0.667608253922623   0.111061686588154   1.0000000
B2   B   0.189532712532833   0.809543458345851   0.110992808591657   1.0000000
B2   B   0.333016985267215   0.952224551035110   0.111015791330909   1.0000000
B2   B   0.333073401810906   0.092880394069161   0.111089002064990   1.0000000
B2   B   0.333151571365483   0.233124961667322   0.111060450172269   1.0000000
B2   B   0.336516149589495   0.375693601468536   0.111093471365990   1.0000000
B2   B   0.336516149589495   0.532252953367959   0.111093471365990   1.0000000
B2   B   0.333151571365483   0.671457014945161   0.111060450172269   1.0000000
B2   B   0.333073401810906   0.811623412988745   0.111089002064990   1.0000000
B2   B   0.476834080346069   0.953741242975079   0.111004317889098   1.0000000
B2   B   0.476834080346069   0.094523242617989   0.111004317889098   1.0000000
B2   B   0.476792320850375   0.235242808518415   0.111035484840605   1.0000000
B2   B   0.477154848348771   0.376050324103098   0.111013394498129   1.0000000
B2   B   0.477154848348771   0.672534929492673   0.111013394498129   1.0000000
B2   B   0.476792320850375   0.812979917578968   0.111035484840605   1.0000000
B2   B   0.620360270658908   0.954114879725887   0.110991526043203   1.0000000
B2   B   0.620466705659096   0.095947699675043   0.110973620297735   1.0000000
B2   B   0.620360270658908   0.237675796180021   0.110991526043203   1.0000000
B2   B   0.619775727103174   0.379556206449084   0.111012700073622   1.0000000
B2   B   0.615496714129326   0.520571603937450   0.111079223184464   1.0000000
B2   B   0.615496714129326   0.666355515439869   0.111079223184464   1.0000000
B2   B   0.619775727103174   0.811649925901088   0.111012700073622   1.0000000
B2   B   0.762993080040579   0.953631005961031   0.110986657313306   1.0000000
B2   B   0.763656665422716   0.096418396288273   0.111022585380312   1.0000000
B2   B   0.763656665422716   0.238666962825441   0.111022585380312   1.0000000
B2   B   0.762993080040579   0.380792479326549   0.110986657313306   1.0000000
B2   B   0.760937729441580   0.522834280229663   0.111049968995711   1.0000000
B2   B   0.758515543758107   0.664972974503050   0.111085561850138   1.0000000
B2   B   0.760937729441580   0.809533854459919   0.111049968995711   1.0000000
N2   N   0.951451986621281   0.904053801578573   0.110978023551605   1.0000000
N2   N   0.953012347018509   0.047895487583770   0.110972090005989   1.0000000
N2   N   0.954481519491587   0.191645119258646   0.111053797069859   1.0000000
N2   N   0.954481519491587   0.334263382350938   0.111053797069859   1.0000000
N2   N   0.953012347018509   0.476543841552736   0.110972090005989   1.0000000
N2   N   0.951451986621281   0.618826878717704   0.110978023551605   1.0000000
N2   N   0.950972282948406   0.761200488311705   0.111002127635277   1.0000000
N2   N   0.094182197378617   0.903899716498832   0.110949891019136   1.0000000
N2   N   0.094656826561845   0.046537759439780   0.110994132071640   1.0000000
N2   N   0.096358502608608   0.190500034092390   0.110992400269816   1.0000000
N2   N   0.098314333170611   0.334871513422306   0.111013513493148   1.0000000
N2   N   0.096358502608608   0.477287162190218   0.110992400269816   1.0000000
N2   N   0.094656826561845   0.619547760797067   0.110994132071640   1.0000000
N2   N   0.094182197378617   0.761712886110789   0.110949891019136   1.0000000
N2   N   0.237520342713728   0.904475373972363   0.110963812330881   1.0000000
N2   N   0.237542961232532   0.046024529504261   0.111051209758798   1.0000000
N2   N   0.237721980562494   0.188032325150185   0.111054918326267   1.0000000
N2   N   0.240518950628129   0.332953305963751   0.111037066521546   1.0000000
N2   N   0.240518950628129   0.478994338338372   0.111037066521546   1.0000000
N2   N   0.237721980562494   0.621118349087307   0.111054918326267   1.0000000
N2   N   0.237542961232532   0.762947125403274   0.111051209758798   1.0000000
N2   N   0.381349947267747   0.906247411361699   0.111019102296253   1.0000000
N2   N   0.381349947267747   0.046531229581051   0.111019102296253   1.0000000
N2   N   0.381345446177091   0.186550398913065   0.111070820145650   1.0000000
N2   N   0.381260987141856   0.325624668155213   0.110996960066965   1.0000000
N2   N   0.381260987141856   0.627065012661638   0.110996960066965   1.0000000
N2   N   0.381345446177091   0.766223740939029   0.111070820145650   1.0000000
N2   N   0.525143880323295   0.907683256549570   0.110998173136761   1.0000000
N2   N   0.525160732812309   0.048293857465658   0.110954057016927   1.0000000
N2   N   0.525143880323295   0.188889317448728   0.110998173136761   1.0000000
N2   N   0.525110112966518   0.329188587841515   0.110994254157610   1.0000000
N2   N   0.522411571091566   0.469081891509793   0.111015677479355   1.0000000
N2   N   0.522411571091566   0.624758373256770   0.111015677479355   1.0000000
N2   N   0.525110112966518   0.767350218800005   0.110994254157610   1.0000000
N2   N   0.668147535349078   0.907027282314417   0.110976500116496   1.0000000
N2   N   0.668475892842985   0.049101710498779   0.110967374620530   1.0000000
N2   N   0.668475892842985   0.190801164463214   0.110967374620530   1.0000000
N2   N   0.668147535349078   0.332548946709664   0.110976500116496   1.0000000
N2   N   0.666459718888670   0.474725155590066   0.111042076774908   1.0000000
N2   N   0.663585960939218   0.617507327307608   0.111071980563586   1.0000000
N2   N   0.666459718888670   0.763163256973608   0.111042076774908   1.0000000
N2   N   0.809759701089532   0.905317352625981   0.110980181558353   1.0000000
N2   N   0.811182601070736   0.048943184428916   0.110996383751377   1.0000000
N2   N   0.811553604888557   0.191490293503281   0.111050809622564   1.0000000
N2   N   0.811182601070736   0.333666398759825   0.110996383751377   1.0000000
N2   N   0.809759701089532   0.475871042137551   0.110980181558353   1.0000000
N2   N   0.807902487328222   0.618254274637852   0.111053787591199   1.0000000
N2   N   0.807902487328222   0.761076906365373   0.111053787591199   1.0000000


