data_1
_audit_creation_method   'vasp2cif'
_cell_length_a    14.93631414619966
_cell_length_b    14.936314146199727
_cell_length_c    13.341276283792837
_cell_angle_alpha    90.0
_cell_angle_beta    90.0
_cell_angle_gamma    119.99999999999984

_symmetry_space_group_name_H-M    'P 1'
loop_
_atom_site_label
_atom_site_type_symbol
_atom_site_fract_x
_atom_site_fract_y
_atom_site_fract_z
_atom_site_occupancy
P2   P   0.444444444444443   0.388888888888886   0.375000000000000   1.0000000
N2   N   0.111123928432687   0.055576509611387   0.125344975921769   1.0000000
N2   N   0.611064746091978   0.555524286323574   0.124131624995677   1.0000000
N2   N   0.444452581178702   0.055576509611387   0.125344975921769   1.0000000
N2   N   0.944432211984206   0.555551976855569   0.125110994959186   1.0000000
N2   N   0.777777777777779   0.055555555555557   0.124856739263289   1.0000000
N2   N   0.111111111111114   0.722222222222221   0.625051303113171   1.0000000
N2   N   0.444452581178702   0.722209404900650   0.624655024078229   1.0000000
N2   N   0.277809047009758   0.222268587241361   0.625868375004328   1.0000000
N2   N   0.777756823721948   0.722209404900650   0.624655024078229   1.0000000
N2   N   0.611109327983882   0.222224005349453   0.624754464751834   1.0000000
N2   N   0.944434569644960   0.222219762735173   0.624961420457013   1.0000000
N2   N   0.277781356477762   0.722213568461974   0.125110994959186   1.0000000
N2   N   0.111114677365579   0.222224005349453   0.125245535248165   1.0000000
N2   N   0.444459540231598   0.222268587241361   0.124131624995677   1.0000000
N2   N   0.611109327983882   0.722218655967763   0.125245535248165   1.0000000
N2   N   0.944432211984206   0.722213568461974   0.125110994959186   1.0000000
N2   N   0.777785193090216   0.222219762735173   0.125038579542990   1.0000000
N2   N   0.111119764871366   0.888901121349123   0.624889005040814   1.0000000
N2   N   0.444453133905207   0.888893233619266   0.624935045363038   1.0000000
N2   N   0.277809047009758   0.388873793101731   0.625868375004328   1.0000000
N2   N   0.611064746091978   0.388873793101731   0.625868375004328   1.0000000
N2   N   0.777785193090216   0.888898763688369   0.624961420457013   1.0000000
N2   N   0.944440099714062   0.388880199428122   0.624935045363038   1.0000000
N2   N   0.111123928432687   0.388880752154626   0.125344975921769   1.0000000
N2   N   0.277781356477762   0.888901121349123   0.125110994959186   1.0000000
N2   N   0.611113570598160   0.888898763688369   0.125038579542990   1.0000000
N2   N   0.444444444444443   0.388888888888886   0.118072239355737   1.0000000
N2   N   0.944440099714062   0.888893233619266   0.125064954636965   1.0000000
N2   N   0.777756823721948   0.388880752154626   0.125344975921769   1.0000000
N2   N   0.277791830191957   0.555541503141375   0.624701552645655   1.0000000
N2   N   0.111123928432687   0.055576509611387   0.624655024078229   1.0000000
N2   N   0.611064746091978   0.555524286323574   0.625868375004328   1.0000000
N2   N   0.444452581178702   0.055576509611387   0.624655024078229   1.0000000
N2   N   0.944432211984206   0.555551976855569   0.624889005040814   1.0000000
N2   N   0.111119764871366   0.555551976855569   0.125110994959186   1.0000000
N2   N   0.777777777777779   0.055555555555557   0.625143260736712   1.0000000
N2   N   0.277791830191957   0.055583660383919   0.125298447354347   1.0000000
N2   N   0.444459540231598   0.555524286323574   0.124131624995677   1.0000000
N2   N   0.777749672949422   0.555541503141375   0.125298447354347   1.0000000
N2   N   0.611113570598160   0.055548140243126   0.125038579542990   1.0000000
N2   N   0.444459540231598   0.555524286323574   0.625868375004328   1.0000000
N2   N   0.944434569644960   0.055548140243126   0.125038579542990   1.0000000
N2   N   0.277781356477762   0.722213568461974   0.624889005040814   1.0000000
N2   N   0.111114677365579   0.222224005349453   0.624754464751834   1.0000000
N2   N   0.444459540231598   0.222268587241361   0.625868375004328   1.0000000
N2   N   0.611109327983882   0.722218655967763   0.624754464751834   1.0000000
N2   N   0.944432211984206   0.722213568461974   0.624889005040814   1.0000000
N2   N   0.777785193090216   0.222219762735173   0.624961420457013   1.0000000
N2   N   0.111111111111114   0.722222222222221   0.124948696886833   1.0000000
N2   N   0.444452581178702   0.722209404900650   0.125344975921769   1.0000000
N2   N   0.277809047009758   0.222268587241361   0.124131624995677   1.0000000
N2   N   0.777756823721948   0.722209404900650   0.125344975921769   1.0000000
N2   N   0.611109327983882   0.222224005349453   0.125245535248165   1.0000000
N2   N   0.944434569644960   0.222219762735173   0.125038579542990   1.0000000
N2   N   0.111123928432687   0.388880752154626   0.624655024078229   1.0000000
N2   N   0.277781356477762   0.888901121349123   0.624889005040814   1.0000000
N2   N   0.611113570598160   0.888898763688369   0.624961420457013   1.0000000
N2   N   0.444444444444443   0.388888888888886   0.631927760644266   1.0000000
N2   N   0.944440099714062   0.888893233619266   0.624935045363038   1.0000000
N2   N   0.111119764871366   0.888901121349123   0.125110994959186   1.0000000
N2   N   0.777756823721948   0.388880752154626   0.624655024078229   1.0000000
N2   N   0.444453133905207   0.888893233619266   0.125064954636965   1.0000000
N2   N   0.277809047009758   0.388873793101731   0.124131624995677   1.0000000
N2   N   0.277791830191957   0.555541503141375   0.125298447354347   1.0000000
N2   N   0.611064746091978   0.388873793101731   0.124131624995677   1.0000000
N2   N   0.777785193090216   0.888898763688369   0.125038579542990   1.0000000
N2   N   0.944440099714062   0.388880199428122   0.125064954636965   1.0000000
N2   N   0.111119764871366   0.555551976855569   0.624889005040814   1.0000000
N2   N   0.277791830191957   0.055583660383919   0.624701552645655   1.0000000
N2   N   0.777749672949422   0.555541503141375   0.624701552645655   1.0000000
N2   N   0.611113570598160   0.055548140243126   0.624961420457013   1.0000000
N2   N   0.944434569644960   0.055548140243126   0.624961420457013   1.0000000
N2   N   0.054903870396390   0.110637129136939   0.375000000000000   1.0000000
N2   N   0.555899167154323   0.611798334308631   0.375000000000000   1.0000000
N2   N   0.387870550473744   0.106867743201747   0.375000000000000   1.0000000
N2   N   0.890504279773323   0.611918806553340   0.375000000000000   1.0000000
N2   N   0.722335424499884   0.110997908833457   0.375000000000000   1.0000000
N2   N   0.055557786982523   0.777775546350814   0.875000000000000   1.0000000
N2   N   0.388889867155739   0.777776566593048   0.875000000000000   1.0000000
N2   N   0.222228473310988   0.277780903322162   0.875000000000000   1.0000000
N2   N   0.722223319222069   0.777774219868984   0.875000000000000   1.0000000
N2   N   0.555552430011174   0.277780903322162   0.875000000000000   1.0000000
N2   N   0.888889953749330   0.277779907498679   0.875000000000000   1.0000000
N2   N   0.221907774645878   0.777620553989608   0.375000000000000   1.0000000
N2   N   0.054903870396390   0.277600074592787   0.375000000000000   1.0000000
N2   N   0.381629606156755   0.263259212313519   0.375000000000000   1.0000000
N2   N   0.555733258740544   0.778429462936946   0.375000000000000   1.0000000
N2   N   0.890037157244539   0.778674462524908   0.375000000000000   1.0000000
N2   N   0.722696204196395   0.277600074592787   0.375000000000000   1.0000000
N2   N   0.055556766740288   0.944446633896020   0.875000000000000   1.0000000
N2   N   0.388889867155739   0.944446633896020   0.875000000000000   1.0000000
N2   N   0.222216694016239   0.444445856092976   0.875000000000000   1.0000000
N2   N   0.555572328222601   0.444452830777965   0.875000000000000   1.0000000
N2   N   0.722223126559158   0.944446253118319   0.875000000000000   1.0000000
N2   N   0.888886699437309   0.444443466177590   0.875000000000000   1.0000000
N2   N   0.054658870808429   0.444696028052970   0.375000000000000   1.0000000
N2   N   0.221414526780000   0.942829053560005   0.375000000000000   1.0000000
N2   N   0.555734112911810   0.944533723122575   0.375000000000000   1.0000000
N2   N   0.381629606156755   0.451703727176574   0.375000000000000   1.0000000
N2   N   0.888799610210753   0.944533723122575   0.375000000000000   1.0000000
N2   N   0.726465590131590   0.445462782859585   0.375000000000000   1.0000000
N2   N   0.222219606785128   0.611113726548208   0.875000000000000   1.0000000
N2   N   0.055559113464354   0.111110014111269   0.875000000000000   1.0000000
N2   N   0.555552430011174   0.611104860022347   0.875000000000000   1.0000000
N2   N   0.388887477240353   0.111104171256601   0.875000000000000   1.0000000
N2   N   0.888894119763069   0.611113726548208   0.875000000000000   1.0000000
N2   N   0.055712779343728   0.611425558687459   0.375000000000000   1.0000000
N2   N   0.722223126559158   0.111110206774174   0.875000000000000   1.0000000
N2   N   0.218997192727996   0.106867743201747   0.375000000000000   1.0000000
N2   N   0.387870550473744   0.614336140605344   0.375000000000000   1.0000000
N2   N   0.726465590131590   0.614336140605344   0.375000000000000   1.0000000
N2   N   0.555733258740544   0.110637129136939   0.375000000000000   1.0000000
N2   N   0.388887477240353   0.611116639317097   0.875000000000000   1.0000000
N2   N   0.888662484333563   0.110997908833457   0.375000000000000   1.0000000
N2   N   0.222217759368289   0.777775546350814   0.875000000000000   1.0000000
N2   N   0.055559113464354   0.277782432686421   0.875000000000000   1.0000000
N2   N   0.388880502555364   0.277761005110739   0.875000000000000   1.0000000
N2   N   0.555550900646914   0.777774219868984   0.875000000000000   1.0000000
N2   N   0.888886699437309   0.777776566593048   0.875000000000000   1.0000000
N2   N   0.722223319222069   0.277782432686421   0.875000000000000   1.0000000
N2   N   0.055712779343728   0.777620553989608   0.375000000000000   1.0000000
N2   N   0.388637305280359   0.778674462524908   0.375000000000000   1.0000000
N2   N   0.221534999024698   0.277434166179020   0.375000000000000   1.0000000
N2   N   0.722696204196395   0.778429462936946   0.375000000000000   1.0000000
N2   N   0.555899167154323   0.277434166179020   0.375000000000000   1.0000000
N2   N   0.888799610210753   0.277599220421526   0.375000000000000   1.0000000
N2   N   0.055556766740288   0.444443466177590   0.875000000000000   1.0000000
N2   N   0.222219606785128   0.944439213570260   0.875000000000000   1.0000000
N2   N   0.555553425834657   0.944443379583999   0.875000000000000   1.0000000
N2   N   0.388880502555364   0.444452830777965   0.875000000000000   1.0000000
N2   N   0.888889953749330   0.944443379583999   0.875000000000000   1.0000000
N2   N   0.054658870808429   0.943296176088790   0.375000000000000   1.0000000
N2   N   0.722229162076732   0.444445856092976   0.875000000000000   1.0000000
N2   N   0.388637305280359   0.943296176088790   0.375000000000000   1.0000000
N2   N   0.218997192727996   0.445462782859585   0.375000000000000   1.0000000
N2   N   0.221414526780000   0.611918806553340   0.375000000000000   1.0000000
N2   N   0.570074121019819   0.451703727176574   0.375000000000000   1.0000000
N2   N   0.722335424499884   0.944670848999766   0.375000000000000   1.0000000
N2   N   0.890037157244539   0.444696028052970   0.375000000000000   1.0000000
N2   N   0.055557786982523   0.611115573965046   0.875000000000000   1.0000000
N2   N   0.222216694016239   0.111104171256601   0.875000000000000   1.0000000
N2   N   0.722229162076732   0.611116639317097   0.875000000000000   1.0000000
N2   N   0.555550900646914   0.111110014111269   0.875000000000000   1.0000000
N2   N   0.888887080215010   0.111110206774174   0.875000000000000   1.0000000
B2   B   0.108952279806268   0.053469995293725   0.375000000000000   1.0000000
B2   B   0.616886208284583   0.560670575764943   0.375000000000000   1.0000000
B2   B   0.444517715487456   0.053469995293725   0.375000000000000   1.0000000
B2   B   0.945127582103881   0.555817817213150   0.375000000000000   1.0000000
B2   B   0.777777777777779   0.055555555555557   0.375000000000000   1.0000000
B2   B   0.111111111111114   0.722222222222221   0.875000000000000   1.0000000
B2   B   0.444439365689592   0.722207633973572   0.875000000000000   1.0000000
B2   B   0.277774621099470   0.222262878256592   0.875000000000000   1.0000000
B2   B   0.777768268283971   0.722207633973572   0.875000000000000   1.0000000
B2   B   0.611070036346401   0.222263296986934   0.875000000000000   1.0000000
B2   B   0.944428874798395   0.222256619691077   0.875000000000000   1.0000000
B2   B   0.277515516120185   0.722643098224066   0.375000000000000   1.0000000
B2   B   0.110425300277435   0.221879316805379   0.375000000000000   1.0000000
B2   B   0.443784367480362   0.216447125048758   0.375000000000000   1.0000000
B2   B   0.611454016527957   0.722908033055896   0.375000000000000   1.0000000
B2   B   0.945127582103881   0.722643098224066   0.375000000000000   1.0000000
B2   B   0.777930100353662   0.221970811512715   0.375000000000000   1.0000000
B2   B   0.111168706123173   0.888921584968718   0.875000000000000   1.0000000
B2   B   0.444494443663474   0.888913888498403   0.875000000000000   1.0000000
B2   B   0.277774621099470   0.388845076176207   0.875000000000000   1.0000000
B2   B   0.611070455076751   0.388845076176207   0.875000000000000   1.0000000
B2   B   0.777827744892686   0.888904458534934   0.875000000000000   1.0000000
B2   B   0.944419444834925   0.388838889669855   0.875000000000000   1.0000000
B2   B   0.108952279806268   0.388815617845873   0.375000000000000   1.0000000
B2   B   0.277515516120185   0.888205751229447   0.375000000000000   1.0000000
B2   B   0.611362521820615   0.889292622174286   0.375000000000000   1.0000000
B2   B   0.944298775191826   0.889034558141502   0.375000000000000   1.0000000
B2   B   0.779863338039610   0.388815617845873   0.375000000000000   1.0000000
B2   B   0.277756564552396   0.555576768780938   0.875000000000000   1.0000000
B2   B   0.111125699359763   0.055565065049359   0.875000000000000   1.0000000
B2   B   0.611070455076751   0.555558712233866   0.875000000000000   1.0000000
B2   B   0.444439365689592   0.055565065049359   0.875000000000000   1.0000000
B2   B   0.944411748364610   0.555580454487794   0.875000000000000   1.0000000
B2   B   0.110690235109267   0.555817817213150   0.375000000000000   1.0000000
B2   B   0.777777777777779   0.055555555555557   0.875000000000000   1.0000000
B2   B   0.276498466259781   0.052996932519559   0.375000000000000   1.0000000
B2   B   0.443784367480362   0.560670575764943   0.375000000000000   1.0000000
B2   B   0.780336400813774   0.556834867073561   0.375000000000000   1.0000000
B2   B   0.611362521820615   0.055403232979671   0.375000000000000   1.0000000
B2   B   0.444488257157122   0.555558712233866   0.875000000000000   1.0000000
B2   B   0.944040711159042   0.055403232979671   0.375000000000000   1.0000000
B2   B   0.277752878845550   0.722164627210161   0.875000000000000   1.0000000
B2   B   0.111193260640538   0.222263296986934   0.875000000000000   1.0000000
B2   B   0.444488257157122   0.222262878256592   0.875000000000000   1.0000000
B2   B   0.611070036346401   0.722140072692797   0.875000000000000   1.0000000
B2   B   0.944411748364610   0.722164627210161   0.875000000000000   1.0000000
B2   B   0.777827744892686   0.222256619691077   0.875000000000000   1.0000000
B2   B   0.111111111111114   0.722222222222221   0.375000000000000   1.0000000
B2   B   0.444517715487456   0.724381053527065   0.375000000000000   1.0000000
B2   B   0.272662757568393   0.216447125048758   0.375000000000000   1.0000000
B2   B   0.779863338039610   0.724381053527065   0.375000000000000   1.0000000
B2   B   0.611454016527957   0.221879316805379   0.375000000000000   1.0000000
B2   B   0.944040711159042   0.221970811512715   0.375000000000000   1.0000000
B2   B   0.111125699359763   0.388893967643737   0.875000000000000   1.0000000
B2   B   0.277752878845550   0.888921584968718   0.875000000000000   1.0000000
B2   B   0.611076713642264   0.888904458534934   0.875000000000000   1.0000000
B2   B   0.444444444444443   0.388888888888886   0.875000000000000   1.0000000
B2   B   0.944419444834925   0.888913888498403   0.875000000000000   1.0000000
B2   B   0.110690235109267   0.888205751229447   0.375000000000000   1.0000000
B2   B   0.777768268283971   0.388893967643737   0.875000000000000   1.0000000
B2   B   0.444735782949688   0.889034558141502   0.375000000000000   1.0000000
B2   B   0.272662757568393   0.389548965852966   0.375000000000000   1.0000000
B2   B   0.276498466259781   0.556834867073561   0.375000000000000   1.0000000
B2   B   0.616886208284583   0.389548965852966   0.375000000000000   1.0000000
B2   B   0.777930100353662   0.889292622174286   0.375000000000000   1.0000000
B2   B   0.944298775191826   0.388597550383641   0.375000000000000   1.0000000
B2   B   0.111168706123173   0.555580454487794   0.875000000000000   1.0000000
B2   B   0.277756564552396   0.055513129104793   0.875000000000000   1.0000000
B2   B   0.777820204228544   0.555576768780938   0.875000000000000   1.0000000
B2   B   0.611076713642264   0.055505588440658   0.875000000000000   1.0000000
B2   B   0.944428874798395   0.055505588440658   0.875000000000000   1.0000000
B2   B   0.055604291920351   0.111106799169782   0.125251893493883   1.0000000
B2   B   0.555524512566603   0.611049025133191   0.124526505592528   1.0000000
B2   B   0.388954029116097   0.111181376677657   0.125092682715775   1.0000000
B2   B   0.888841563673300   0.611087448503319   0.125230534792591   1.0000000
B2   B   0.722248533459181   0.111084799874147   0.124988762645830   1.0000000
B2   B   0.055580476196413   0.777752857136928   0.624965453026240   1.0000000
B2   B   0.388937099539229   0.777734127400178   0.624799606245726   1.0000000
B2   B   0.222284308200142   0.277808820766740   0.625473494407468   1.0000000
B2   B   0.722226534163552   0.777729041412986   0.624748106506109   1.0000000
B2   B   0.555524512566603   0.277808820766740   0.625473494407468   1.0000000
B2   B   0.888884813999751   0.277769627999514   0.624955087187838   1.0000000
B2   B   0.222172380940510   0.777752857136928   0.125034546973761   1.0000000
B2   B   0.055604291920351   0.277830826083908   0.125251893493883   1.0000000
B2   B   0.389030799993527   0.278061599987061   0.122302659979646   1.0000000
B2   B   0.555502507249440   0.777729041412986   0.125251893493883   1.0000000
B2   B   0.888797027860939   0.777734127400178   0.125200393754274   1.0000000
B2   B   0.722226534163552   0.277830826083908   0.125251893493883   1.0000000
B2   B   0.055599205933159   0.944536305472389   0.624799606245726   1.0000000
B2   B   0.388937099539229   0.944536305472389   0.624799606245726   1.0000000
B2   B   0.222227347561556   0.444379304217231   0.624907317284225   1.0000000
B2   B   0.555271733346274   0.444302533339801   0.627697340020352   1.0000000
B2   B   0.722248533459181   0.944497066918378   0.625011237354175   1.0000000
B2   B   0.888797027860939   0.444396233794099   0.624799606245726   1.0000000
B2   B   0.055599205933159   0.444396233794099   0.125200393754274   1.0000000
B2   B   0.222245884830015   0.944491769660028   0.125230534792591   1.0000000
B2   B   0.555563705333823   0.944448519333577   0.125044912812168   1.0000000
B2   B   0.389030799993527   0.444302533339802   0.122302659979646   1.0000000
B2   B   0.888884813999751   0.944448519333577   0.125044912812168   1.0000000
B2   B   0.722151956655682   0.444379304217231   0.125092682715775   1.0000000
B2   B   0.222245884830015   0.611087448503319   0.624769465207412   1.0000000
B2   B   0.055604291920351   0.111106799169782   0.624748106506109   1.0000000
B2   B   0.555524512566603   0.611049025133191   0.625473494407468   1.0000000
B2   B   0.388954029116097   0.111181376677657   0.624907317284225   1.0000000
B2   B   0.888841563673300   0.611087448503319   0.624769465207412   1.0000000
B2   B   0.055580476196413   0.611160952392832   0.125034546973761   1.0000000
B2   B   0.722248533459181   0.111084799874147   0.625011237354175   1.0000000
B2   B   0.222227347561556   0.111181376677657   0.125092682715775   1.0000000
B2   B   0.388954029116097   0.611105985771781   0.125092682715775   1.0000000
B2   B   0.722151956655682   0.611105985771781   0.125092682715775   1.0000000
B2   B   0.555502507249440   0.111106799169782   0.125251893493883   1.0000000
B2   B   0.388954029116097   0.611105985771781   0.624907317284225   1.0000000
B2   B   0.888836266414951   0.111084799874147   0.124988762645830   1.0000000
B2   B   0.222172380940510   0.777752857136928   0.624965453026240   1.0000000
B2   B   0.055604291920351   0.277830826083908   0.624748106506109   1.0000000
B2   B   0.389030799993527   0.278061599987061   0.627697340020352   1.0000000
B2   B   0.555502507249440   0.777729041412986   0.624748106506109   1.0000000
B2   B   0.888797027860939   0.777734127400178   0.624799606245726   1.0000000
B2   B   0.722226534163552   0.277830826083908   0.624748106506109   1.0000000
B2   B   0.055580476196413   0.777752857136928   0.125034546973761   1.0000000
B2   B   0.388937099539229   0.777734127400178   0.125200393754274   1.0000000
B2   B   0.222284308200142   0.277808820766740   0.124526505592528   1.0000000
B2   B   0.722226534163552   0.777729041412986   0.125251893493883   1.0000000
B2   B   0.555524512566603   0.277808820766740   0.124526505592528   1.0000000
B2   B   0.888884813999751   0.277769627999514   0.125044912812168   1.0000000
B2   B   0.055599205933159   0.444396233794099   0.624799606245726   1.0000000
B2   B   0.222245884830015   0.944491769660028   0.624769465207412   1.0000000
B2   B   0.555563705333823   0.944448519333577   0.624955087187838   1.0000000
B2   B   0.389030799993527   0.444302533339801   0.627697340020352   1.0000000
B2   B   0.888884813999751   0.944448519333577   0.624955087187838   1.0000000
B2   B   0.055599205933159   0.944536305472389   0.125200393754274   1.0000000
B2   B   0.722151956655682   0.444379304217231   0.624907317284225   1.0000000
B2   B   0.388937099539229   0.944536305472389   0.125200393754274   1.0000000
B2   B   0.222227347561556   0.444379304217231   0.125092682715775   1.0000000
B2   B   0.222245884830015   0.611087448503319   0.125230534792591   1.0000000
B2   B   0.555271733346274   0.444302533339801   0.122302659979646   1.0000000
B2   B   0.722248533459181   0.944497066918378   0.124988762645830   1.0000000
B2   B   0.888797027860939   0.444396233794099   0.125200393754274   1.0000000
B2   B   0.055580476196413   0.611160952392832   0.624965453026240   1.0000000
B2   B   0.222227347561556   0.111181376677657   0.624907317284225   1.0000000
B2   B   0.722151956655682   0.611105985771781   0.624907317284225   1.0000000
B2   B   0.555502507249440   0.111106799169782   0.624748106506109   1.0000000
B2   B   0.888836266414951   0.111084799874147   0.625011237354175   1.0000000


