data_1
_audit_creation_method   'vasp2cif'
_cell_length_a    17.52789999999977
_cell_length_b    17.52789999999977
_cell_length_c    15.0
_cell_angle_alpha    90.0
_cell_angle_beta    90.0
_cell_angle_gamma    119.99999999999916

_symmetry_space_group_name_H-M    'P 1'
loop_
_atom_site_label
_atom_site_type_symbol
_atom_site_fract_x
_atom_site_fract_y
_atom_site_fract_z
_atom_site_occupancy
B2   B   0.905182300609087   0.952615087058914   0.111019490239781   1.0000000
B2   B   0.904781771113134   0.095272601336646   0.111054423374771   1.0000000
B2   B   0.904734217942391   0.238010136009255   0.111049739213206   1.0000000
B2   B   0.904661015875685   0.380769796287137   0.111006541187663   1.0000000
B2   B   0.905126776977058   0.523874928280601   0.111041551304256   1.0000000
B2   B   0.905499348962509   0.666840229624263   0.111122376342593   1.0000000
B2   B   0.905714435621885   0.810142086465205   0.111069705844835   1.0000000
B2   B   0.047886597811723   0.952548830913885   0.111017493500912   1.0000000
B2   B   0.047635636501856   0.095106019759736   0.111005268246016   1.0000000
B2   B   0.047208722946008   0.237755173042445   0.110982780753737   1.0000000
B2   B   0.047079496522656   0.380710736022728   0.110978545694445   1.0000000
B2   B   0.047321148996495   0.523879195174505   0.110969138699320   1.0000000
B2   B   0.047711505472090   0.666829611552165   0.111012905788366   1.0000000
B2   B   0.047978550768600   0.809763049746419   0.111006936991648   1.0000000
B2   B   0.190485503705439   0.952402694689228   0.110977299214869   1.0000000
B2   B   0.190236935964438   0.094947429337297   0.111016954202491   1.0000000
B2   B   0.189768505490913   0.237341194422690   0.110967223693727   1.0000000
B2   B   0.189535457417099   0.380508111059418   0.110979102229726   1.0000000
B2   B   0.189239209793576   0.523819228240156   0.111071724887913   1.0000000
B2   B   0.189925045000698   0.666838867310599   0.111037097793317   1.0000000
B2   B   0.190373985804105   0.809758242420179   0.110967549994240   1.0000000
B2   B   0.333232262502999   0.952536899489248   0.111004802813296   1.0000000
B2   B   0.333279221104804   0.094947754577446   0.111042837938771   1.0000000
B2   B   0.332883346099487   0.237192811961674   0.111031139360223   1.0000000
B2   B   0.332381591144540   0.378707606011274   0.110957584034069   1.0000000
B2   B   0.331219657297339   0.524724459322445   0.111107720633557   1.0000000
B2   B   0.332153615221445   0.667265895590530   0.111191123723666   1.0000000
B2   B   0.333023967423412   0.810134104342972   0.111046155617497   1.0000000
B2   B   0.476020183935880   0.952621050296259   0.110997640862444   1.0000000
B2   B   0.476057637045122   0.095122559131529   0.111022153275202   1.0000000
B2   B   0.476135930515457   0.237361860328545   0.111070993605481   1.0000000
B2   B   0.474907818862460   0.378750650498528   0.111028365401701   1.0000000
B2   B   0.473958610186202   0.667537779751153   0.111111000806826   1.0000000
B2   B   0.475969843281135   0.810368316299514   0.111059185509342   1.0000000
B2   B   0.618935308698580   0.952771806657266   0.111001330315225   1.0000000
B2   B   0.619061756359083   0.095287218455863   0.111035444330642   1.0000000
B2   B   0.619127064481504   0.237778162843381   0.111065944307046   1.0000000
B2   B   0.619547583466617   0.380539710262958   0.111098128053645   1.0000000
B2   B   0.622094584147053   0.524758609641041   0.111008970474802   1.0000000
B2   B   0.622191196396813   0.667562087654039   0.110922615906963   1.0000000
B2   B   0.619295024085552   0.809988204753349   0.110960005482082   1.0000000
B2   B   0.762410663031242   0.952763477802178   0.111001713537396   1.0000000
B2   B   0.761867182282229   0.095189513355557   0.111071734857322   1.0000000
B2   B   0.761817425355571   0.238018635647149   0.111081583628819   1.0000000
B2   B   0.762184225744063   0.380714676464517   0.111077412011532   1.0000000
B2   B   0.763149642289950   0.523834652129437   0.111120028533179   1.0000000
B2   B   0.763704506529949   0.667288986108843   0.111045316613270   1.0000000
B2   B   0.762991431204732   0.810382215232095   0.110972010045253   1.0000000
N2   N   0.952622774312272   0.905003972935543   0.111027478710013   1.0000000
N2   N   0.952287364991594   0.047601675568445   0.111009475267328   1.0000000
N2   N   0.952115917439705   0.190271704006915   0.111022286196149   1.0000000
N2   N   0.952066600057063   0.333066906891005   0.111000025410955   1.0000000
N2   N   0.952287629773057   0.476006656781596   0.110964505137053   1.0000000
N2   N   0.952634651061980   0.619092328005386   0.111057204758896   1.0000000
N2   N   0.952656287147068   0.762104438185228   0.111062584515892   1.0000000
N2   N   0.095292388863751   0.904868601421428   0.110973486268105   1.0000000
N2   N   0.095164313118322   0.047565115341414   0.110993065580301   1.0000000
N2   N   0.094780901945210   0.190127856188729   0.110974543298834   1.0000000
N2   N   0.094490142886587   0.332931917448568   0.110940334477656   1.0000000
N2   N   0.094528700712067   0.476029815316275   0.110950420934436   1.0000000
N2   N   0.095041737298341   0.619092917039686   0.110975211081237   1.0000000
N2   N   0.095307266296310   0.762023895519747   0.110965616443150   1.0000000
N2   N   0.238150211928715   0.904864859787114   0.110958238212830   1.0000000
N2   N   0.238056482167253   0.047541751660756   0.110993516885247   1.0000000
N2   N   0.237721731600944   0.190108434662993   0.110988469479630   1.0000000
N2   N   0.236788652737221   0.332546130807971   0.110927100828155   1.0000000
N2   N   0.236138735532463   0.475861517044922   0.111084158476504   1.0000000
N2   N   0.237450298089462   0.619198550129628   0.111098669946633   1.0000000
N2   N   0.238040016620590   0.762101800925515   0.110986783494605   1.0000000
N2   N   0.380965381100290   0.904998747325470   0.110990641422858   1.0000000
N2   N   0.380977863735633   0.047565453724442   0.111015438726385   1.0000000
N2   N   0.380953276017294   0.190111285155802   0.111037780473268   1.0000000
N2   N   0.380434482885882   0.332298034590701   0.110996011007174   1.0000000
N2   N   0.369081985883427   0.471025081547417   0.110782760937138   1.0000000
N2   N   0.379956076918773   0.619828724668346   0.111221499270583   1.0000000
N2   N   0.380905086361342   0.762440094712792   0.111104846519940   1.0000000
N2   N   0.523847621391713   0.905089034619610   0.110969837041995   1.0000000
N2   N   0.523890865953838   0.047609520502609   0.110996857816841   1.0000000
N2   N   0.523920307329366   0.190151354347074   0.111026972372973   1.0000000
N2   N   0.524328227648349   0.332577401186970   0.111074978067211   1.0000000
N2   N   0.530524502084800   0.471071074061578   0.110956160161172   1.0000000
N2   N   0.528807170796330   0.629009714745581   0.110908577220505   1.0000000
N2   N   0.523950417456352   0.762781145329847   0.111043444285719   1.0000000
N2   N   0.666717258494835   0.904853763424601   0.110955976532650   1.0000000
N2   N   0.666639137244343   0.047549502545606   0.111029248434210   1.0000000
N2   N   0.666713478964149   0.190282644677580   0.111058005388569   1.0000000
N2   N   0.667005671025019   0.332952222830712   0.111074446534838   1.0000000
N2   N   0.668295758893692   0.475886812941149   0.111074768317922   1.0000000
N2   N   0.668474401850992   0.619855546088708   0.110954001162873   1.0000000
N2   N   0.667435528286220   0.762796193487721   0.110891095344904   1.0000000
N2   N   0.809828248811215   0.905096691416714   0.110987894385409   1.0000000
N2   N   0.809464032082900   0.047544598443640   0.111041087412290   1.0000000
N2   N   0.809378909107295   0.190220298287375   0.111059149584515   1.0000000
N2   N   0.809551542506816   0.333073280613403   0.111042665082306   1.0000000
N2   N   0.810065716718375   0.476037186380897   0.111074157434264   1.0000000
N2   N   0.810332526044159   0.619213135531366   0.111108533435987   1.0000000
N2   N   0.810136925746964   0.762460715260161   0.111019045665774   1.0000000


