data_1
_audit_creation_method   'vasp2cif'
_cell_length_a    14.93631414619966
_cell_length_b    14.936314146199727
_cell_length_c    13.341276283792837
_cell_angle_alpha    90.0
_cell_angle_beta    90.0
_cell_angle_gamma    119.99999999999984

_symmetry_space_group_name_H-M    'P 1'
loop_
_atom_site_label
_atom_site_type_symbol
_atom_site_fract_x
_atom_site_fract_y
_atom_site_fract_z
_atom_site_occupancy
Pb2   Pb   0.494068143026424   0.413700738179876   0.375000000000000   1.0000000
N2   N   0.111120789711631   0.055540541379731   0.125119225210744   1.0000000
N2   N   0.611149021117132   0.555626078644258   0.123761066182800   1.0000000
N2   N   0.444462009444038   0.055534805632663   0.125133108012329   1.0000000
N2   N   0.944462496567622   0.555567358400058   0.125267261706161   1.0000000
N2   N   0.777804464470832   0.055568898902083   0.125068161631189   1.0000000
N2   N   0.111127179436164   0.722230256384748   0.624866246128226   1.0000000
N2   N   0.444462009444038   0.722260537144712   0.624866891987672   1.0000000
N2   N   0.277762099424270   0.222191653426933   0.625404604337011   1.0000000
N2   N   0.777794765723056   0.722235162962497   0.624805457950664   1.0000000
N2   N   0.611126394022858   0.222197626448477   0.625019094340034   1.0000000
N2   N   0.944470877696643   0.222240630749215   0.624875812502708   1.0000000
N2   N   0.277794020842600   0.722241773066190   0.125150122381597   1.0000000
N2   N   0.111131593640938   0.222232463487134   0.125064595466545   1.0000000
N2   N   0.444470167924168   0.222200696172616   0.124574003106873   1.0000000
N2   N   0.611126394022858   0.722262100907711   0.124980905659966   1.0000000
N2   N   0.944462496567622   0.722228471500901   0.125267261706161   1.0000000
N2   N   0.777800427366517   0.222228725014668   0.125140280790440   1.0000000
N2   N   0.111126805146542   0.888883456212707   0.624844343712736   1.0000000
N2   N   0.444462811432785   0.888898072383058   0.624850979426348   1.0000000
N2   N   0.277762099424270   0.388903779330666   0.625404604337011   1.0000000
N2   N   0.611149021117132   0.388856275806204   0.626238933817201   1.0000000
N2   N   0.777800427366517   0.888905035685178   0.624859719209560   1.0000000
N2   N   0.944464053466353   0.388907727210932   0.624782206623150   1.0000000
N2   N   0.111120789711631   0.388913581665228   0.125119225210744   1.0000000
N2   N   0.277794020842600   0.888885581109737   0.125150122381597   1.0000000
N2   N   0.611130630258494   0.888913338019182   0.125129952677895   1.0000000
N2   N   0.444397913125365   0.388865623229347   0.124200968221590   1.0000000
N2   N   0.944464053466353   0.888889659588747   0.125217793376851   1.0000000
N2   N   0.777794765723056   0.388892936093889   0.125194542049336   1.0000000
N2   N   0.277793642573450   0.555589109939602   0.624902461618676   1.0000000
N2   N   0.111120789711631   0.055540541379731   0.624880774789256   1.0000000
N2   N   0.611149021117132   0.555626078644258   0.626238933817201   1.0000000
N2   N   0.444462009444038   0.055534805632663   0.624866891987672   1.0000000
N2   N   0.944462496567622   0.555567358400058   0.624732738293841   1.0000000
N2   N   0.111126805146542   0.555576682267164   0.125155656287267   1.0000000
N2   N   0.777804464470832   0.055568898902083   0.624931838368811   1.0000000
N2   N   0.277793642573450   0.055537865967184   0.125097538381323   1.0000000
N2   N   0.444470167924168   0.555602805084889   0.124574003106873   1.0000000
N2   N   0.777792359948987   0.555562846641161   0.125054191588822   1.0000000
N2   N   0.611130630258494   0.055550625572641   0.125129952677895   1.0000000
N2   N   0.444470167924168   0.555602805084889   0.625425996893126   1.0000000
N2   N   0.944470877696643   0.055563580280762   0.125124187497292   1.0000000
N2   N   0.277794020842600   0.722241773066190   0.624849877618403   1.0000000
N2   N   0.111131593640938   0.222232463487134   0.624935404533455   1.0000000
N2   N   0.444470167924168   0.222200696172616   0.625425996893126   1.0000000
N2   N   0.611126394022858   0.722262100907711   0.625019094340034   1.0000000
N2   N   0.944462496567622   0.722228471500901   0.624732738293841   1.0000000
N2   N   0.777800427366517   0.222228725014668   0.624859719209560   1.0000000
N2   N   0.111127179436164   0.722230256384748   0.125133753871774   1.0000000
N2   N   0.444462009444038   0.722260537144712   0.125133108012329   1.0000000
N2   N   0.277762099424270   0.222191653426933   0.124595395662988   1.0000000
N2   N   0.777794765723056   0.722235162962497   0.125194542049336   1.0000000
N2   N   0.611126394022858   0.222197626448477   0.124980905659966   1.0000000
N2   N   0.944470877696643   0.222240630749215   0.125124187497292   1.0000000
N2   N   0.111120789711631   0.388913581665228   0.624880774789256   1.0000000
N2   N   0.277794020842600   0.888885581109737   0.624849877618403   1.0000000
N2   N   0.611130630258494   0.888913338019182   0.624870047322106   1.0000000
N2   N   0.444397913125365   0.388865623229347   0.625799031778411   1.0000000
N2   N   0.944464053466353   0.888889659588747   0.624782206623150   1.0000000
N2   N   0.111126805146542   0.888883456212707   0.125155656287267   1.0000000
N2   N   0.777794765723056   0.388892936093889   0.624805457950664   1.0000000
N2   N   0.444462811432785   0.888898072383058   0.125149020573654   1.0000000
N2   N   0.277762099424270   0.388903779330666   0.124595395662988   1.0000000
N2   N   0.277793642573450   0.555589109939602   0.125097538381323   1.0000000
N2   N   0.611149021117132   0.388856275806204   0.123761066182800   1.0000000
N2   N   0.777800427366517   0.888905035685178   0.125140280790440   1.0000000
N2   N   0.944464053466353   0.388907727210932   0.125217793376851   1.0000000
N2   N   0.111126805146542   0.555576682267164   0.624844343712736   1.0000000
N2   N   0.277793642573450   0.055537865967184   0.624902461618676   1.0000000
N2   N   0.777792359948987   0.555562846641161   0.624945808411176   1.0000000
N2   N   0.611130630258494   0.055550625572641   0.624870047322106   1.0000000
N2   N   0.944470877696643   0.055563580280762   0.624875812502708   1.0000000
N2   N   0.057790083058487   0.112337709559891   0.375000000000000   1.0000000
N2   N   0.555301034741197   0.618365348263585   0.375000000000000   1.0000000
N2   N   0.387630733496282   0.103451931722503   0.375000000000000   1.0000000
N2   N   0.888633727634492   0.610983530483918   0.375000000000000   1.0000000
N2   N   0.724235661694727   0.111374636450739   0.375000000000000   1.0000000
N2   N   0.055533318892133   0.777768302727170   0.875000000000000   1.0000000
N2   N   0.388875527967533   0.777770257947213   0.875000000000000   1.0000000
N2   N   0.222200793306265   0.277767063319801   0.875000000000000   1.0000000
N2   N   0.722208797942473   0.777770124560779   0.875000000000000   1.0000000
N2   N   0.555538151671471   0.277769006630485   0.875000000000000   1.0000000
N2   N   0.888875338182827   0.277771412455127   0.875000000000000   1.0000000
N2   N   0.221161876337676   0.777247604835506   0.375000000000000   1.0000000
N2   N   0.057790083058487   0.278785706831932   0.375000000000000   1.0000000
N2   N   0.386301206074718   0.262861193825667   0.375000000000000   1.0000000
N2   N   0.556386738471958   0.781608302126722   0.375000000000000   1.0000000
N2   N   0.889932203426711   0.778856589029006   0.375000000000000   1.0000000
N2   N   0.724039299229264   0.276847793890714   0.375000000000000   1.0000000
N2   N   0.055535048866118   0.944435352101424   0.875000000000000   1.0000000
N2   N   0.388875527967533   0.944438603353655   0.875000000000000   1.0000000
N2   N   0.222200157509905   0.444432104279905   0.875000000000000   1.0000000
N2   N   0.555536272061341   0.444434802697335   0.875000000000000   1.0000000
N2   N   0.722210130488315   0.944437830487013   0.875000000000000   1.0000000
N2   N   0.888872882122390   0.444434847374329   0.875000000000000   1.0000000
N2   N   0.055884542254361   0.445004570984027   0.375000000000000   1.0000000
N2   N   0.221051894516707   0.942169347531558   0.375000000000000   1.0000000
N2   N   0.556561667221357   0.944947500277343   0.375000000000000   1.0000000
N2   N   0.386301206074718   0.456773345582387   0.375000000000000   1.0000000
N2   N   0.890852534369339   0.946071971414051   0.375000000000000   1.0000000
N2   N   0.724316632113873   0.444533795696441   0.375000000000000   1.0000000
N2   N   0.222201740649401   0.611098460862933   0.875000000000000   1.0000000
N2   N   0.055535901813996   0.111100993996233   0.875000000000000   1.0000000
N2   N   0.555538151671471   0.611102478374322   0.875000000000000   1.0000000
N2   N   0.388872249865921   0.111104826652509   0.875000000000000   1.0000000
N2   N   0.888870720607085   0.611102026970213   0.875000000000000   1.0000000
N2   N   0.054804768454533   0.611030915738944   0.375000000000000   1.0000000
N2   N   0.722210130488315   0.111105633334636   0.875000000000000   1.0000000
N2   N   0.221853120207775   0.108770905393395   0.375000000000000   1.0000000
N2   N   0.387630733496282   0.617512135107123   0.375000000000000   1.0000000
N2   N   0.724316632113873   0.613116169750766   0.375000000000000   1.0000000
N2   N   0.556386738471958   0.108111769678573   0.375000000000000   1.0000000
N2   N   0.388872249865921   0.611100756546756   0.875000000000000   1.0000000
N2   N   0.891203977585139   0.112268655459241   0.375000000000000   1.0000000
N2   N   0.222203046507610   0.777768189920474   0.875000000000000   1.0000000
N2   N   0.055535901813996   0.277768241151099   0.875000000000000   1.0000000
N2   N   0.388871436993464   0.277769630832369   0.875000000000000   1.0000000
N2   N   0.555542027183742   0.777770199933423   0.875000000000000   1.0000000
N2   N   0.888872882122390   0.777771368081398   0.875000000000000   1.0000000
N2   N   0.722208797942473   0.277772006715030   0.875000000000000   1.0000000
N2   N   0.054804768454533   0.777107186048925   0.375000000000000   1.0000000
N2   N   0.388411392698943   0.779608229007664   0.375000000000000   1.0000000
N2   N   0.225658230839162   0.279495782086248   0.375000000000000   1.0000000
N2   N   0.724039299229264   0.780524838671888   0.375000000000000   1.0000000
N2   N   0.555301034741197   0.270269019810947   0.375000000000000   1.0000000
N2   N   0.890852534369339   0.278113896288624   0.375000000000000   1.0000000
N2   N   0.055535048866118   0.444433030098022   0.875000000000000   1.0000000
N2   N   0.222201740649401   0.944436613119803   0.875000000000000   1.0000000
N2   N   0.555543666465489   0.944438499899408   0.875000000000000   1.0000000
N2   N   0.388871436993464   0.444435139494430   0.875000000000000   1.0000000
N2   N   0.888875338182827   0.944437259061035   0.875000000000000   1.0000000
N2   N   0.055884542254361   0.944213304603664   0.375000000000000   1.0000000
N2   N   0.722208199196418   0.444437794590763   0.875000000000000   1.0000000
N2   N   0.388411392698943   0.942136497024615   0.375000000000000   1.0000000
N2   N   0.221853120207775   0.446415548147715   0.375000000000000   1.0000000
N2   N   0.221051894516707   0.612215880318484   0.375000000000000   1.0000000
N2   N   0.724235661694727   0.946194358577325   0.375000000000000   1.0000000
N2   N   0.889932203426711   0.444408947731039   0.375000000000000   1.0000000
N2   N   0.055533318892132   0.611098349498299   0.875000000000000   1.0000000
N2   N   0.222200157509905   0.111101386563335   0.875000000000000   1.0000000
N2   N   0.722208199196418   0.611103737938988   0.875000000000000   1.0000000
N2   N   0.555542027183742   0.111105160583655   0.875000000000000   1.0000000
N2   N   0.888875361418310   0.111104347375826   0.875000000000000   1.0000000
B2   B   0.111467952815589   0.055046399445765   0.375000000000000   1.0000000
B2   B   0.619661169487181   0.576188460046934   0.375000000000000   1.0000000
B2   B   0.444861179592769   0.051228209752339   0.375000000000000   1.0000000
B2   B   0.944669157140576   0.555502689694475   0.375000000000000   1.0000000
B2   B   0.780422369488920   0.056877851411127   0.375000000000000   1.0000000
B2   B   0.111103603423052   0.722218468378191   0.875000000000000   1.0000000
B2   B   0.444417674217070   0.722227184505801   0.875000000000000   1.0000000
B2   B   0.277707311155670   0.222182292329667   0.875000000000000   1.0000000
B2   B   0.777794800862939   0.722259846899600   0.875000000000000   1.0000000
B2   B   0.611103463384519   0.222182958058822   0.875000000000000   1.0000000
B2   B   0.944434623064200   0.222208349173454   0.875000000000000   1.0000000
B2   B   0.277157489761325   0.722914905914857   0.375000000000000   1.0000000
B2   B   0.113966615374294   0.223649974353812   0.375000000000000   1.0000000
B2   B   0.442289687804689   0.211203092372295   0.375000000000000   1.0000000
B2   B   0.613480067019207   0.729582325949601   0.375000000000000   1.0000000
B2   B   0.944669157140576   0.722499800779436   0.375000000000000   1.0000000
B2   B   0.780361388152422   0.221861134654229   0.375000000000000   1.0000000
B2   B   0.111095624239013   0.888887752119356   0.875000000000000   1.0000000
B2   B   0.444427527423112   0.888880430378222   0.875000000000000   1.0000000
B2   B   0.277707311155670   0.388858352159332   0.875000000000000   1.0000000
B2   B   0.611099927767995   0.388862988874427   0.875000000000000   1.0000000
B2   B   0.777786318373276   0.888920067949671   0.875000000000000   1.0000000
B2   B   0.944448210600885   0.388869345425520   0.875000000000000   1.0000000
B2   B   0.111467952815589   0.389754886703152   0.375000000000000   1.0000000
B2   B   0.277157489761325   0.887575917179796   0.375000000000000   1.0000000
B2   B   0.613270265398455   0.891786317786240   0.375000000000000   1.0000000
B2   B   0.945697291239536   0.890195639971473   0.375000000000000   1.0000000
B2   B   0.780615236170956   0.387588347625160   0.375000000000000   1.0000000
B2   B   0.277733310886303   0.555539441594418   0.875000000000000   1.0000000
B2   B   0.111076251914372   0.055543905772273   0.875000000000000   1.0000000
B2   B   0.611099927767995   0.555570272226898   0.875000000000000   1.0000000
B2   B   0.444417674217070   0.055523823044606   0.875000000000000   1.0000000
B2   B   0.944457396923461   0.555550500725807   0.875000000000000   1.0000000
B2   B   0.110502631724063   0.555894442097267   0.375000000000000   1.0000000
B2   B   0.777780875451038   0.055557104392187   0.875000000000000   1.0000000
B2   B   0.276527935383444   0.052191855300974   0.375000000000000   1.0000000
B2   B   0.442289687804689   0.564419928765728   0.375000000000000   1.0000000
B2   B   0.779268215615256   0.556300774474294   0.375000000000000   1.0000000
B2   B   0.613270265398455   0.054817280945544   0.375000000000000   1.0000000
B2   B   0.444396866872683   0.555555043321438   0.875000000000000   1.0000000
B2   B   0.946941220709293   0.057235633071052   0.375000000000000   1.0000000
B2   B   0.277754435127032   0.722212368192623   0.875000000000000   1.0000000
B2   B   0.111065584135845   0.222199458734587   0.875000000000000   1.0000000
B2   B   0.444396866872683   0.222175156884581   0.875000000000000   1.0000000
B2   B   0.611103463384519   0.722253838659025   0.875000000000000   1.0000000
B2   B   0.944457396923461   0.722240229530994   0.875000000000000   1.0000000
B2   B   0.777786318373276   0.222199583756934   0.875000000000000   1.0000000
B2   B   0.110459017351135   0.721896175342232   0.375000000000000   1.0000000
B2   B   0.444861179592769   0.726966303173765   0.375000000000000   1.0000000
B2   B   0.277673153036831   0.219689343296017   0.375000000000000   1.0000000
B2   B   0.780615236170956   0.726360221879124   0.375000000000000   1.0000000
B2   B   0.613480067019207   0.217231074402932   0.375000000000000   1.0000000
B2   B   0.946941220709293   0.223038920971577   0.375000000000000   1.0000000
B2   B   0.111076251914372   0.388865679475428   0.875000000000000   1.0000000
B2   B   0.277754435127032   0.888875400267738   0.875000000000000   1.0000000
B2   B   0.611107509827703   0.888902537531089   0.875000000000000   1.0000000
B2   B   0.444384723800364   0.388859028566846   0.875000000000000   1.0000000
B2   B   0.944448210600885   0.888912198508693   0.875000000000000   1.0000000
B2   B   0.110502631724063   0.887941522960125   0.375000000000000   1.0000000
B2   B   0.777794800862939   0.388868287296669   0.875000000000000   1.0000000
B2   B   0.445177591054767   0.889255462194047   0.375000000000000   1.0000000
B2   B   0.277673153036831   0.391317143074142   0.375000000000000   1.0000000
B2   B   0.276527935383444   0.557669413415805   0.375000000000000   1.0000000
B2   B   0.619661169487181   0.376806042773574   0.375000000000000   1.0000000
B2   B   0.780361388152424   0.891833586831524   0.375000000000000   1.0000000
B2   B   0.945697291239536   0.388834984601388   0.375000000000000   1.0000000
B2   B   0.111095624239013   0.555541205452985   0.875000000000000   1.0000000
B2   B   0.277733310886303   0.055527202625221   0.875000000000000   1.0000000
B2   B   0.777796792170900   0.555565062752118   0.875000000000000   1.0000000
B2   B   0.611107509827703   0.055538305629944   0.875000000000000   1.0000000
B2   B   0.944434623064200   0.055559607224080   0.875000000000000   1.0000000
B2   B   0.055576082754497   0.111115676039405   0.124947228202632   1.0000000
B2   B   0.555510044836633   0.611261107151235   0.123731380581004   1.0000000
B2   B   0.388802410436917   0.110929939613990   0.124694840640655   1.0000000
B2   B   0.889068069004494   0.611200701168918   0.124849603240784   1.0000000
B2   B   0.722249571724375   0.111076725185178   0.124873748333461   1.0000000
B2   B   0.055662525212767   0.777829882024808   0.625048431370536   1.0000000
B2   B   0.388857311528499   0.777816420567681   0.625055377522902   1.0000000
B2   B   0.222147555196347   0.277740444264841   0.625448490742658   1.0000000
B2   B   0.722285256179286   0.777920960047601   0.625325760490717   1.0000000
B2   B   0.555510044836633   0.277582271018734   0.626268619418995   1.0000000
B2   B   0.888961914501359   0.277777107487587   0.625060625871055   1.0000000
B2   B   0.222250147925014   0.777791740629174   0.124947438779112   1.0000000
B2   B   0.055576082754497   0.277793740048428   0.124947228202632   1.0000000
B2   B   0.388652896197446   0.277484840667316   0.123940434186347   1.0000000
B2   B   0.555522197461518   0.777887379654326   0.124787119395468   1.0000000
B2   B   0.889033863359997   0.777891522601268   0.124913575188405   1.0000000
B2   B   0.722285256179286   0.277697629465019   0.124674239509284   1.0000000
B2   B   0.055612603184418   0.944464939083181   0.625023289162357   1.0000000
B2   B   0.388857311528499   0.944374224294154   0.625055377522902   1.0000000
B2   B   0.222162625204632   0.444483249275056   0.625222412194838   1.0000000
B2   B   0.555638860926544   0.444486097129936   0.626876328902325   1.0000000
B2   B   0.722249571724375   0.944506179872532   0.625126251666538   1.0000000
B2   B   0.889033863359997   0.444475674092064   0.625086424811595   1.0000000
B2   B   0.055612603184418   0.444480997434566   0.124976710837643   1.0000000
B2   B   0.222226621932625   0.944399486699879   0.124960620504361   1.0000000
B2   B   0.555537953277967   0.944435643305647   0.124920524663942   1.0000000
B2   B   0.388652896197446   0.444501388863466   0.123940434186347   1.0000000
B2   B   0.888961914501359   0.944518140347109   0.124939374128945   1.0000000
B2   B   0.722373286472473   0.444460295207864   0.123982122557781   1.0000000
B2   B   0.222226621932625   0.611160468566082   0.625039379495640   1.0000000
B2   B   0.055576082754497   0.111115676039405   0.625052771797370   1.0000000
B2   B   0.555510044836633   0.611261107151235   0.626268619418995   1.0000000
B2   B   0.388802410436917   0.110929939613990   0.625305159359346   1.0000000
B2   B   0.889068069004494   0.611200701168918   0.625150396759215   1.0000000
B2   B   0.055662525212767   0.611165976521292   0.124951568629464   1.0000000
B2   B   0.722249571724375   0.111076725185178   0.625126251666538   1.0000000
B2   B   0.222162625204632   0.111012709262912   0.124777587805162   1.0000000
B2   B   0.388802410436917   0.611205804156273   0.124694840640655   1.0000000
B2   B   0.722373286472473   0.611246324597946   0.123982122557781   1.0000000
B2   B   0.555522197461518   0.110968151140526   0.124787119395468   1.0000000
B2   B   0.388802410436917   0.611205804156273   0.625305159359346   1.0000000
B2   B   0.888936540888752   0.111134937111048   0.124918930936918   1.0000000
B2   B   0.222250147925014   0.777791740629174   0.625052561220887   1.0000000
B2   B   0.055576082754497   0.277793740048428   0.625052771797370   1.0000000
B2   B   0.388652896197446   0.277484840667316   0.626059565813652   1.0000000
B2   B   0.555522197461518   0.777887379654326   0.625212880604531   1.0000000
B2   B   0.889033863359997   0.777891522601268   0.625086424811595   1.0000000
B2   B   0.722285256179286   0.277697629465019   0.625325760490717   1.0000000
B2   B   0.055662525212767   0.777829882024808   0.124951568629464   1.0000000
B2   B   0.388857311528499   0.777816420567681   0.124944622477097   1.0000000
B2   B   0.222147555196347   0.277740444264841   0.124551509257342   1.0000000
B2   B   0.722285256179286   0.777920960047601   0.124674239509284   1.0000000
B2   B   0.555510044836633   0.277582271018734   0.123731380581004   1.0000000
B2   B   0.888961914501359   0.277777107487587   0.124939374128945   1.0000000
B2   B   0.055612603184418   0.444480997434566   0.625023289162357   1.0000000
B2   B   0.222226621932625   0.944399486699879   0.625039379495640   1.0000000
B2   B   0.555537953277967   0.944435643305647   0.625079475336058   1.0000000
B2   B   0.388652896197446   0.444501388863466   0.626059565813652   1.0000000
B2   B   0.888961914501359   0.944518140347109   0.625060625871055   1.0000000
B2   B   0.055612603184418   0.944464939083181   0.124976710837643   1.0000000
B2   B   0.722373286472473   0.444460295207864   0.626017877442220   1.0000000
B2   B   0.388857311528499   0.944374224294154   0.124944622477097   1.0000000
B2   B   0.222162625204632   0.444483249275056   0.124777587805162   1.0000000
B2   B   0.222226621932625   0.611160468566082   0.124960620504361   1.0000000
B2   B   0.555638860926544   0.444486097129936   0.123123671097675   1.0000000
B2   B   0.722249571724375   0.944506179872532   0.124873748333461   1.0000000
B2   B   0.889033863359997   0.444475674092064   0.124913575188405   1.0000000
B2   B   0.055662525212767   0.611165976521292   0.625048431370536   1.0000000
B2   B   0.222162625204632   0.111012709262912   0.625222412194838   1.0000000
B2   B   0.722373286472473   0.611246324597946   0.626017877442220   1.0000000
B2   B   0.555522197461518   0.110968151140526   0.625212880604531   1.0000000
B2   B   0.888936540888752   0.111134937111048   0.625081069063082   1.0000000


