data_1
_audit_creation_method   'vasp2cif'
_cell_length_a    17.52789999999977
_cell_length_b    17.52789999999977
_cell_length_c    15.0
_cell_angle_alpha    90.0
_cell_angle_beta    90.0
_cell_angle_gamma    119.99999999999916

_symmetry_space_group_name_H-M    'P 1'
loop_
_atom_site_label
_atom_site_type_symbol
_atom_site_fract_x
_atom_site_fract_y
_atom_site_fract_z
_atom_site_occupancy
B2   B   0.904841435920445   0.952365467924015   0.110955886618220   1.0000000
B2   B   0.904876508607145   0.095270829396256   0.110990547304864   1.0000000
B2   B   0.904835851045018   0.238119830474370   0.110987091126085   1.0000000
B2   B   0.904745252556876   0.381008611479968   0.110930169194693   1.0000000
B2   B   0.904926212901212   0.524169550832098   0.110992528666366   1.0000000
B2   B   0.907168556305810   0.667875567211960   0.111244455512796   1.0000000
B2   B   0.904729023937702   0.809114394485244   0.111032702772320   1.0000000
B2   B   0.047755812461820   0.952567881021927   0.110946402671448   1.0000000
B2   B   0.047830177402951   0.095377072722302   0.110939409674664   1.0000000
B2   B   0.047852373320819   0.238156104708766   0.110938608721650   1.0000000
B2   B   0.047769668029355   0.380931146786593   0.110970220085464   1.0000000
B2   B   0.047596916304911   0.523787875576392   0.110987748593860   1.0000000
B2   B   0.048465800783633   0.666690975003923   0.111046470563034   1.0000000
B2   B   0.048457372690989   0.810421598111787   0.110994336492733   1.0000000
B2   B   0.190691285444520   0.952611581836653   0.110955264772666   1.0000000
B2   B   0.190800646175844   0.095560247207985   0.110977416769615   1.0000000
B2   B   0.190820336536406   0.238189557127417   0.110961195288380   1.0000000
B2   B   0.190904556512659   0.381012878635795   0.110978486363059   1.0000000
B2   B   0.190165614779012   0.523805808464079   0.111043124739167   1.0000000
B2   B   0.190647116054578   0.666754014048131   0.111079585313121   1.0000000
B2   B   0.190585982122133   0.809646830369868   0.110994037282636   1.0000000
B2   B   0.333295645810838   0.952302604333950   0.110958719573238   1.0000000
B2   B   0.333024346491388   0.094651340825022   0.111012893110144   1.0000000
B2   B   0.333949051752724   0.238070300435719   0.111071721580375   1.0000000
B2   B   0.334420960258298   0.381423811393480   0.111099461788890   1.0000000
B2   B   0.332524433726306   0.524100553655016   0.111060427866792   1.0000000
B2   B   0.332978512109289   0.666959710103422   0.111093675059947   1.0000000
B2   B   0.333266358073716   0.809687640884873   0.111059179930522   1.0000000
B2   B   0.476162779034619   0.952515163877885   0.110935447312362   1.0000000
B2   B   0.476070272884150   0.095140194466774   0.110892422064925   1.0000000
B2   B   0.475149682702881   0.236984734293203   0.111007355339891   1.0000000
B2   B   0.474500757071925   0.525170230277320   0.111242200866092   1.0000000
B2   B   0.475366025225217   0.667363985442283   0.111054906634000   1.0000000
B2   B   0.476062218641652   0.809872241031372   0.111034957624677   1.0000000
B2   B   0.619034669230189   0.952299530400730   0.110959296311840   1.0000000
B2   B   0.618982970673506   0.095365356960886   0.110895891606366   1.0000000
B2   B   0.618620877952369   0.238291610573265   0.110950167124821   1.0000000
B2   B   0.617312443229946   0.381034392937481   0.111076974059907   1.0000000
B2   B   0.617360189851056   0.664992971453669   0.111074485714478   1.0000000
B2   B   0.618867537585679   0.808973708737111   0.110973385822210   1.0000000
B2   B   0.761853247043421   0.952445145576697   0.110957107718831   1.0000000
B2   B   0.761899732074598   0.095239205460907   0.110981891004114   1.0000000
B2   B   0.761778461832328   0.237946565654553   0.110969960171680   1.0000000
B2   B   0.761734099926220   0.380683321161721   0.110966134829079   1.0000000
B2   B   0.762365049062243   0.523326973175245   0.111250825125321   1.0000000
B2   B   0.761683303898002   0.666819656531253   0.111271760952126   1.0000000
B2   B   0.761801209316046   0.809770428331347   0.110979216665558   1.0000000
C2   C   0.476138126034131   0.379302190697788   0.111312701217181   1.0000000
C2   C   0.525430339006792   0.474136108758107   0.111438663204183   1.0000000
C2   C   0.620286805947646   0.523611486124671   0.111297901571812   1.0000000
C2   C   0.810224774080498   0.619341288079319   0.111522063416020   1.0000000
N2   N   0.952521137375921   0.905079942869096   0.110953791565783   1.0000000
N2   N   0.952614353503415   0.047849152482257   0.110945732675123   1.0000000
N2   N   0.952636708956091   0.190589957082116   0.110960349979187   1.0000000
N2   N   0.952499343096949   0.333245784556275   0.110944157237641   1.0000000
N2   N   0.952462109471030   0.475931393574337   0.110917419398634   1.0000000
N2   N   0.954525991023464   0.619212220214372   0.111050995475577   1.0000000
N2   N   0.954515091668174   0.763883727696071   0.111045087180056   1.0000000
N2   N   0.096128863979723   0.905814228047249   0.110932588449986   1.0000000
N2   N   0.095752914066003   0.048223249544377   0.110919587463585   1.0000000
N2   N   0.095807085490392   0.190812191177904   0.110920173272441   1.0000000
N2   N   0.095813682341617   0.333390769096841   0.110934623161495   1.0000000
N2   N   0.095279819854152   0.475998423834350   0.110980450406474   1.0000000
N2   N   0.096054568799090   0.618941167779923   0.111026112548745   1.0000000
N2   N   0.096060912560018   0.762370408280607   0.110999496433093   1.0000000
N2   N   0.238438011384823   0.905099143935586   0.110940495420964   1.0000000
N2   N   0.238349757566685   0.047976575712346   0.110979256969819   1.0000000
N2   N   0.239054619100435   0.191345625708521   0.110974745551538   1.0000000
N2   N   0.239473787862885   0.333594024841139   0.110977841818819   1.0000000
N2   N   0.237881037186181   0.476107090298190   0.111005108942119   1.0000000
N2   N   0.238179236417461   0.618997097668837   0.111070562683844   1.0000000
N2   N   0.238397663654910   0.762053704777102   0.111040536469492   1.0000000
N2   N   0.381081373842918   0.904923209352770   0.110970890773970   1.0000000
N2   N   0.380989314839409   0.047634325230240   0.110932905687535   1.0000000
N2   N   0.380557929247607   0.189963320268148   0.111026370902517   1.0000000
N2   N   0.383901118246757   0.334283062691998   0.111147917921502   1.0000000
N2   N   0.380413541670226   0.476492783419442   0.111110312816720   1.0000000
N2   N   0.380472260412410   0.619109116089017   0.111056792613379   1.0000000
N2   N   0.380931015580665   0.762061434035716   0.111065045624533   1.0000000
N2   N   0.523786725055671   0.904951685047348   0.110963016964048   1.0000000
N2   N   0.523772193011485   0.047786836558554   0.110849908120531   1.0000000
N2   N   0.523475080993839   0.190532577684652   0.110908262580740   1.0000000
N2   N   0.521006265311697   0.332165582008254   0.111090725531029   1.0000000
N2   N   0.522295956020479   0.619013558626707   0.111087146741275   1.0000000
N2   N   0.523478947992356   0.762066990043892   0.110996390310361   1.0000000
N2   N   0.666456419065020   0.904407586618615   0.110946171609124   1.0000000
N2   N   0.666582809726408   0.047651659732426   0.110921269319264   1.0000000
N2   N   0.666334161140237   0.190718778893469   0.110918287098933   1.0000000
N2   N   0.665068148798397   0.333768928910512   0.110985126629001   1.0000000
N2   N   0.664549947164376   0.476413925029248   0.111149582443438   1.0000000
N2   N   0.663115805883242   0.614914616676792   0.111166229557457   1.0000000
N2   N   0.665773432885456   0.760478402974430   0.110970881078401   1.0000000
N2   N   0.809312803062618   0.905032562885672   0.110935528940629   1.0000000
N2   N   0.809538190469772   0.047725952137791   0.110975179657087   1.0000000
N2   N   0.809471149375663   0.190409396216671   0.110974117155779   1.0000000
N2   N   0.809064611634783   0.332785362409606   0.110926489705253   1.0000000
N2   N   0.808993210553588   0.474430917612374   0.110985744552016   1.0000000
N2   N   0.808603378527009   0.762585140900588   0.111033108766802   1.0000000


