data_1
_audit_creation_method   'vasp2cif'
_cell_length_a    14.93631414619966
_cell_length_b    14.936314146199727
_cell_length_c    13.341276283792837
_cell_angle_alpha    90.0
_cell_angle_beta    90.0
_cell_angle_gamma    119.99999999999984

_symmetry_space_group_name_H-M    'P 1'
loop_
_atom_site_label
_atom_site_type_symbol
_atom_site_fract_x
_atom_site_fract_y
_atom_site_fract_z
_atom_site_occupancy
Ge2   Ge   0.491249951852456   0.412291642592892   0.375000000000000   1.0000000
N2   N   0.111109605379838   0.055544916703438   0.124988290545244   1.0000000
N2   N   0.611142748532011   0.555618245250279   0.123980391067032   1.0000000
N2   N   0.444459700471815   0.055544848269497   0.125018877508013   1.0000000
N2   N   0.944436723055687   0.555552028323589   0.125054904592064   1.0000000
N2   N   0.777799153003956   0.055566243168646   0.124996005144199   1.0000000
N2   N   0.111106326430847   0.722219829882087   0.624989618212090   1.0000000
N2   N   0.444459700471815   0.722248185535653   0.624981122491987   1.0000000
N2   N   0.277760922972825   0.222200488993089   0.625204021898603   1.0000000
N2   N   0.777779917329280   0.722233639206641   0.624986716251492   1.0000000
N2   N   0.611124504560422   0.222200350866877   0.625093815242021   1.0000000
N2   N   0.944458351552841   0.222230604286931   0.624999377195308   1.0000000
N2   N   0.277783971499492   0.722230900999113   0.125011555098200   1.0000000
N2   N   0.111117022015266   0.222225177674297   0.124982027049396   1.0000000
N2   N   0.444463859839665   0.222207401136943   0.124733199984891   1.0000000
N2   N   0.611124504560422   0.722257487026875   0.124906184757978   1.0000000
N2   N   0.944436723055687   0.722218028065435   0.125054904592064   1.0000000
N2   N   0.777793601254404   0.222220441062366   0.125035710802070   1.0000000
N2   N   0.111108888834577   0.888882091731801   0.624998868356971   1.0000000
N2   N   0.444459748388181   0.888896540860754   0.624988625587263   1.0000000
N2   N   0.277760922972825   0.388893767313064   0.625204021898603   1.0000000
N2   N   0.611142748532011   0.388857836615062   0.626019608932968   1.0000000
N2   N   0.777793601254404   0.888906493525366   0.624964289197930   1.0000000
N2   N   0.944447478657005   0.388892317096960   0.624962214724719   1.0000000
N2   N   0.111109605379838   0.388898022009729   0.124988290545244   1.0000000
N2   N   0.277783971499493   0.888886403833709   0.125011555098200   1.0000000
N2   N   0.611130394645834   0.888911015593400   0.125015571999541   1.0000000
N2   N   0.444384734376952   0.388859033855140   0.124447925330639   1.0000000
N2   N   0.944447478657005   0.888888494893373   0.125037785275281   1.0000000
N2   N   0.777779917329280   0.388879611455967   0.125013283748509   1.0000000
N2   N   0.277785077221290   0.555572239773710   0.625006837069938   1.0000000
N2   N   0.111109605379838   0.055544916703438   0.625011709454756   1.0000000
N2   N   0.611142748532011   0.555618245250279   0.626019608932968   1.0000000
N2   N   0.444459700471815   0.055544848269497   0.624981122491987   1.0000000
N2   N   0.944436723055687   0.555552028323589   0.624945095407936   1.0000000
N2   N   0.111108888834577   0.555560130436105   0.125001131643029   1.0000000
N2   N   0.777799153003956   0.055566243168646   0.625003994855801   1.0000000
N2   N   0.277785077221290   0.055546170780915   0.124993162930062   1.0000000
N2   N   0.444463859839665   0.555589792036058   0.124733199984891   1.0000000
N2   N   0.777767002436387   0.555550167884861   0.124945889712265   1.0000000
N2   N   0.611130394645834   0.055552712385765   0.125015571999541   1.0000000
N2   N   0.444463859839665   0.555589792036058   0.625266800015109   1.0000000
N2   N   0.944458351552841   0.055561080599245   0.125000622804692   1.0000000
N2   N   0.277783971499492   0.722230900999113   0.624988444901800   1.0000000
N2   N   0.111117022015266   0.222225177674297   0.625017972950603   1.0000000
N2   N   0.444463859839665   0.222207401136943   0.625266800015109   1.0000000
N2   N   0.611124504560422   0.722257487026875   0.625093815242021   1.0000000
N2   N   0.944436723055687   0.722218028065435   0.624945095407936   1.0000000
N2   N   0.777793601254404   0.222220441062366   0.624964289197930   1.0000000
N2   N   0.111106326430847   0.722219829882087   0.125010381787911   1.0000000
N2   N   0.444459700471815   0.722248185535653   0.125018877508013   1.0000000
N2   N   0.277760922972825   0.222200488993089   0.124795978101398   1.0000000
N2   N   0.777779917329280   0.722233639206641   0.125013283748509   1.0000000
N2   N   0.611124504560422   0.222200350866877   0.124906184757978   1.0000000
N2   N   0.944458351552841   0.222230604286931   0.125000622804692   1.0000000
N2   N   0.111109605379838   0.388898022009729   0.625011709454756   1.0000000
N2   N   0.277783971499493   0.888886403833709   0.624988444901800   1.0000000
N2   N   0.611130394645834   0.888911015593400   0.624984428000458   1.0000000
N2   N   0.444384734376952   0.388859033855140   0.625552074669360   1.0000000
N2   N   0.944447478657005   0.888888494893373   0.624962214724719   1.0000000
N2   N   0.111108888834577   0.888882091731801   0.125001131643029   1.0000000
N2   N   0.777779917329280   0.388879611455967   0.624986716251492   1.0000000
N2   N   0.444459748388181   0.888896540860754   0.125011374412737   1.0000000
N2   N   0.277760922972825   0.388893767313064   0.124795978101398   1.0000000
N2   N   0.277785077221290   0.555572239773710   0.124993162930062   1.0000000
N2   N   0.611142748532011   0.388857836615062   0.123980391067032   1.0000000
N2   N   0.777793601254404   0.888906493525366   0.125035710802070   1.0000000
N2   N   0.944447478657005   0.388892317096960   0.125037785275281   1.0000000
N2   N   0.111108888834577   0.555560130436105   0.624998868356971   1.0000000
N2   N   0.277785077221290   0.055546170780915   0.625006837069938   1.0000000
N2   N   0.777767002436387   0.555550167884861   0.625054110287735   1.0000000
N2   N   0.611130394645834   0.055552712385765   0.624984428000458   1.0000000
N2   N   0.944458351552841   0.055561080599245   0.624999377195308   1.0000000
N2   N   0.058889199789566   0.112974762650726   0.375000000000000   1.0000000
N2   N   0.555947394034930   0.618919437752544   0.375000000000000   1.0000000
N2   N   0.388519532955774   0.106087551282196   0.375000000000000   1.0000000
N2   N   0.886342668944663   0.609838001139003   0.375000000000000   1.0000000
N2   N   0.724477190741380   0.111505241698477   0.375000000000000   1.0000000
N2   N   0.055542098370706   0.777771763903390   0.875000000000000   1.0000000
N2   N   0.388875971655230   0.777772596336581   0.875000000000000   1.0000000
N2   N   0.222210698362989   0.277772015848163   0.875000000000000   1.0000000
N2   N   0.722210873968739   0.777771261884354   0.875000000000000   1.0000000
N2   N   0.555541599675104   0.277768744115832   0.875000000000000   1.0000000
N2   N   0.888878629061229   0.277773685458529   0.875000000000000   1.0000000
N2   N   0.221098448365604   0.777215890849470   0.375000000000000   1.0000000
N2   N   0.058889199789566   0.279247770472175   0.375000000000000   1.0000000
N2   N   0.392671853696884   0.272560263645120   0.375000000000000   1.0000000
N2   N   0.556499646818890   0.781624542245268   0.375000000000000   1.0000000
N2   N   0.888625341373563   0.777965290833940   0.375000000000000   1.0000000
N2   N   0.723852118781649   0.276746967353742   0.375000000000000   1.0000000
N2   N   0.055541511853931   0.944437167826201   0.875000000000000   1.0000000
N2   N   0.388875971655230   0.944436708651985   0.875000000000000   1.0000000
N2   N   0.222207861296911   0.444438274783420   0.875000000000000   1.0000000
N2   N   0.555542294789340   0.444437814061334   0.875000000000000   1.0000000
N2   N   0.722208827086688   0.944437470410085   0.875000000000000   1.0000000
N2   N   0.888879196981250   0.444439489663148   0.875000000000000   1.0000000
N2   N   0.056446490269352   0.444974663786815   0.375000000000000   1.0000000
N2   N   0.221467616277635   0.942909560973872   0.375000000000000   1.0000000
N2   N   0.556585482326082   0.944959407829707   0.375000000000000   1.0000000
N2   N   0.392671853696884   0.453444923385099   0.375000000000000   1.0000000
N2   N   0.891226155157472   0.946220824460392   0.375000000000000   1.0000000
N2   N   0.719981510444898   0.442391705379213   0.375000000000000   1.0000000
N2   N   0.222206643201858   0.611103721186149   0.875000000000000   1.0000000
N2   N   0.055543157916569   0.111104094294483   0.875000000000000   1.0000000
N2   N   0.555541599675104   0.611106188892606   0.875000000000000   1.0000000
N2   N   0.388875352037927   0.111102278284668   0.875000000000000   1.0000000
N2   N   0.888880114745874   0.611106724039608   0.875000000000000   1.0000000
N2   N   0.054176423140500   0.610678175749117   0.375000000000000   1.0000000
N2   N   0.722208827086688   0.111104690009939   0.875000000000000   1.0000000
N2   N   0.224362645519680   0.111349460825384   0.375000000000000   1.0000000
N2   N   0.388519532955774   0.615765315006920   0.375000000000000   1.0000000
N2   N   0.719981510444898   0.610923138399021   0.375000000000000   1.0000000
N2   N   0.556499646818890   0.108208437906957   0.375000000000000   1.0000000
N2   N   0.388875352037927   0.611106407086602   0.875000000000000   1.0000000
N2   N   0.891875329012035   0.112604331172689   0.375000000000000   1.0000000
N2   N   0.222207767130148   0.777770550231742   0.875000000000000   1.0000000
N2   N   0.055543157916569   0.277772396955421   0.875000000000000   1.0000000
N2   N   0.388878137835671   0.277770473101983   0.875000000000000   1.0000000
N2   N   0.555541330548407   0.777772183955418   0.875000000000000   1.0000000
N2   N   0.888879196981250   0.777773040651438   0.875000000000000   1.0000000
N2   N   0.722210873968739   0.277772945417721   0.875000000000000   1.0000000
N2   N   0.054176423140500   0.776831580724718   0.375000000000000   1.0000000
N2   N   0.388567890729624   0.779126045735303   0.375000000000000   1.0000000
N2   N   0.227346907816411   0.280340120574873   0.375000000000000   1.0000000
N2   N   0.723852118781649   0.780438484761242   0.375000000000000   1.0000000
N2   N   0.555947394034930   0.270361289615722   0.375000000000000   1.0000000
N2   N   0.891226155157472   0.278338664030415   0.375000000000000   1.0000000
N2   N   0.055541511853931   0.444437677361060   0.875000000000000   1.0000000
N2   N   0.222206643201858   0.944436255349044   0.875000000000000   1.0000000
N2   N   0.555541012472291   0.944437172902810   0.875000000000000   1.0000000
N2   N   0.388878137835671   0.444440998067023   0.875000000000000   1.0000000
N2   N   0.888878629061229   0.944438276936035   0.875000000000000   1.0000000
N2   N   0.056446490269352   0.944805159815866   0.375000000000000   1.0000000
N2   N   0.722214163999641   0.444441277921061   0.875000000000000   1.0000000
N2   N   0.388567890729624   0.942775178327657   0.375000000000000   1.0000000
N2   N   0.224362645519680   0.446346518027631   0.375000000000000   1.0000000
N2   N   0.221467616277636   0.611891388637100   0.375000000000000   1.0000000
N2   N   0.724477190741380   0.946305282376237   0.375000000000000   1.0000000
N2   N   0.888625341373563   0.443993383872956   0.375000000000000   1.0000000
N2   N   0.055542098370706   0.611103667800651   0.875000000000000   1.0000000
N2   N   0.222207861296911   0.111102919846827   0.875000000000000   1.0000000
N2   N   0.722214163999641   0.611106219411916   0.875000000000000   1.0000000
N2   N   0.555541330548407   0.111102479926325   0.875000000000000   1.0000000
N2   N   0.888878281478745   0.111105807406044   0.875000000000000   1.0000000
B2   B   0.113365963597097   0.056383624713765   0.375000000000000   1.0000000
B2   B   0.610342630493743   0.564687201612691   0.375000000000000   1.0000000
B2   B   0.445093247870944   0.052702895080409   0.375000000000000   1.0000000
B2   B   0.943056183943799   0.555025604341226   0.375000000000000   1.0000000
B2   B   0.780732578086374   0.057032955709855   0.375000000000000   1.0000000
B2   B   0.111099778778388   0.722216556055859   0.875000000000000   1.0000000
B2   B   0.444426612650522   0.722210086577379   0.875000000000000   1.0000000
B2   B   0.277768859522790   0.222220100400182   0.875000000000000   1.0000000
B2   B   0.777763729938929   0.722212748768890   0.875000000000000   1.0000000
B2   B   0.611091409985921   0.222215990769963   0.875000000000000   1.0000000
B2   B   0.944440305108051   0.222219017901897   0.875000000000000   1.0000000
B2   B   0.277291194785749   0.722698037286523   0.375000000000000   1.0000000
B2   B   0.115720433231392   0.224526883282361   0.375000000000000   1.0000000
B2   B   0.444283341058773   0.215413538221510   0.375000000000000   1.0000000
B2   B   0.613074212431874   0.728390280209591   0.375000000000000   1.0000000
B2   B   0.943056183943799   0.721363912935911   0.375000000000000   1.0000000
B2   B   0.780311983484389   0.222319259005626   0.375000000000000   1.0000000
B2   B   0.111100835950327   0.888887753575670   0.875000000000000   1.0000000
B2   B   0.444428127268432   0.888880730300880   0.875000000000000   1.0000000
B2   B   0.277768859522790   0.388882092455937   0.875000000000000   1.0000000
B2   B   0.611088058844227   0.388882028526374   0.875000000000000   1.0000000
B2   B   0.777767162871743   0.888883360693673   0.875000000000000   1.0000000
B2   B   0.944437563308437   0.388882984395800   0.875000000000000   1.0000000
B2   B   0.113365963597097   0.390315672216661   0.375000000000000   1.0000000
B2   B   0.277291194785749   0.887926490832556   0.375000000000000   1.0000000
B2   B   0.613201557523283   0.891523019282356   0.375000000000000   1.0000000
B2   B   0.945454209973112   0.889568596944304   0.375000000000000   1.0000000
B2   B   0.777710331773449   0.387765320818642   0.375000000000000   1.0000000
B2   B   0.277764452689766   0.555543716320413   0.875000000000000   1.0000000
B2   B   0.111104814122188   0.055555738699274   0.875000000000000   1.0000000
B2   B   0.611088058844227   0.555539363651181   0.875000000000000   1.0000000
B2   B   0.444426612650522   0.055549859406479   0.875000000000000   1.0000000
B2   B   0.944435388741105   0.555549950252099   0.875000000000000   1.0000000
B2   B   0.110575238507660   0.555879955761445   0.375000000000000   1.0000000
B2   B   0.777768557480210   0.055550945406773   0.875000000000000   1.0000000
B2   B   0.277758938288285   0.053697076231179   0.375000000000000   1.0000000
B2   B   0.444283341058773   0.562203136170600   0.375000000000000   1.0000000
B2   B   0.774873784625844   0.554103558979589   0.375000000000000   1.0000000
B2   B   0.613201557523283   0.055011871574255   0.375000000000000   1.0000000
B2   B   0.444426612021484   0.555542530399514   0.875000000000000   1.0000000
B2   B   0.947731412970986   0.057476742338355   0.375000000000000   1.0000000
B2   B   0.277763736832606   0.722212590355124   0.875000000000000   1.0000000
B2   B   0.111108261049611   0.222220797191470   0.875000000000000   1.0000000
B2   B   0.444426612021484   0.222217414955306   0.875000000000000   1.0000000
B2   B   0.611091409985921   0.722208752549287   0.875000000000000   1.0000000
B2   B   0.944435388741105   0.722218771822341   0.875000000000000   1.0000000
B2   B   0.777767162871743   0.222217135511398   0.875000000000000   1.0000000
B2   B   0.109969112983959   0.721651223158644   0.375000000000000   1.0000000
B2   B   0.445093247870944   0.725723686123871   0.375000000000000   1.0000000
B2   B   0.282441127404611   0.223533106690161   0.375000000000000   1.0000000
B2   B   0.777710331773449   0.723278344288135   0.375000000000000   1.0000000
B2   B   0.613074212431874   0.218017265555611   0.375000000000000   1.0000000
B2   B   0.947731412970986   0.223588003965966   0.375000000000000   1.0000000
B2   B   0.111104814122188   0.388882408756241   0.875000000000000   1.0000000
B2   B   0.277763736832606   0.888884479810812   0.875000000000000   1.0000000
B2   B   0.611094821070286   0.888879856913681   0.875000000000000   1.0000000
B2   B   0.444430348006858   0.388881840670093   0.875000000000000   1.0000000
B2   B   0.944437563308437   0.888887912245964   0.875000000000000   1.0000000
B2   B   0.110575238507660   0.888028616079543   0.375000000000000   1.0000000
B2   B   0.777763729938929   0.388884314503369   0.875000000000000   1.0000000
B2   B   0.445139203902333   0.889236268617830   0.375000000000000   1.0000000
B2   B   0.282441127404611   0.392241354047778   0.375000000000000   1.0000000
B2   B   0.277758938288285   0.557395195390442   0.375000000000000   1.0000000
B2   B   0.610342630493743   0.378988762214380   0.375000000000000   1.0000000
B2   B   0.780311983484389   0.891326057812091   0.375000000000000   1.0000000
B2   B   0.945454209973112   0.389218946362137   0.375000000000000   1.0000000
B2   B   0.111100835950327   0.555546415707988   0.875000000000000   1.0000000
B2   B   0.277764452689766   0.055554069702689   0.875000000000000   1.0000000
B2   B   0.777762027138300   0.555547680235818   0.875000000000000   1.0000000
B2   B   0.611094821070286   0.055548297489933   0.875000000000000   1.0000000
B2   B   0.944440305108051   0.055554620539490   0.875000000000000   1.0000000
B2   B   0.055586066703815   0.111131215798857   0.125005135391024   1.0000000
B2   B   0.555545529938091   0.611120904821275   0.124502332538633   1.0000000
B2   B   0.388890934719925   0.111107753935629   0.124973632071304   1.0000000
B2   B   0.888880306143348   0.611106819738346   0.125003416221591   1.0000000
B2   B   0.722235972098342   0.111106199411062   0.124997256233037   1.0000000
B2   B   0.055565396601892   0.777787759946751   0.624997817925604   1.0000000
B2   B   0.388893719974480   0.777783055181288   0.624996315681372   1.0000000
B2   B   0.222245867134227   0.277789600233781   0.625044791428562   1.0000000
B2   B   0.722221405447360   0.777802586490250   0.625056285074280   1.0000000
B2   B   0.555545529938091   0.277757958450151   0.625497667461368   1.0000000
B2   B   0.888910786576262   0.277776883204539   0.624993070491459   1.0000000
B2   B   0.222230433755400   0.777781883544368   0.124996749562179   1.0000000
B2   B   0.055586066703815   0.277788184238293   0.125005135391024   1.0000000
B2   B   0.388831313348928   0.277706231753276   0.124793200994106   1.0000000
B2   B   0.555556581571487   0.777798734984827   0.124980683204298   1.0000000
B2   B   0.888896474368447   0.777793865564362   0.125009397484353   1.0000000
B2   B   0.722221405447360   0.277752152290445   0.124943714925720   1.0000000
B2   B   0.055573938516144   0.944462778917791   0.624993550345449   1.0000000
B2   B   0.388893719974480   0.944443998126527   0.624996315681372   1.0000000
B2   B   0.222233571262743   0.444445813011845   0.625004522546747   1.0000000
B2   B   0.555583919523973   0.444458626428651   0.625380353971557   1.0000000
B2   B   0.722235972098342   0.944463106020617   0.625002743766963   1.0000000
B2   B   0.888896474368447   0.444435942137420   0.624990602515647   1.0000000
B2   B   0.055573938516144   0.444444492931682   0.125006449654551   1.0000000
B2   B   0.222234461341159   0.944457412342619   0.125004980224111   1.0000000
B2   B   0.555563418578498   0.944448375955913   0.124999297001774   1.0000000
B2   B   0.388831313348928   0.444458414928988   0.124793200994106   1.0000000
B2   B   0.888910786576262   0.944467236705058   0.125006929508542   1.0000000
B2   B   0.722191057261198   0.444415389892630   0.124569734894287   1.0000000
B2   B   0.222234461341159   0.611110382331876   0.624995019775889   1.0000000
B2   B   0.055586066703815   0.111131215798857   0.624994864608977   1.0000000
B2   B   0.555545529938091   0.611120904821275   0.625497667461368   1.0000000
B2   B   0.388890934719925   0.111107753935629   0.625026367928696   1.0000000
B2   B   0.888880306143348   0.611106819738346   0.624996583778409   1.0000000
B2   B   0.055565396601892   0.611110969988477   0.125002182074396   1.0000000
B2   B   0.722235972098342   0.111106199411062   0.625002743766963   1.0000000
B2   B   0.222233571262743   0.111121091584234   0.124995477453252   1.0000000
B2   B   0.388890934719925   0.611116514117640   0.124973632071304   1.0000000
B2   B   0.722191057261198   0.611109000701903   0.124569734894287   1.0000000
B2   B   0.555556581571487   0.111091179919995   0.124980683204298   1.0000000
B2   B   0.388890934719925   0.611116514117640   0.625026367928696   1.0000000
B2   B   0.888916047004255   0.111124690168799   0.124998403521524   1.0000000
B2   B   0.222230433755400   0.777781883544368   0.625003250437822   1.0000000
B2   B   0.055586066703815   0.277788184238293   0.624994864608977   1.0000000
B2   B   0.388831313348928   0.277706231753276   0.625206799005894   1.0000000
B2   B   0.555556581571487   0.777798734984827   0.625019316795703   1.0000000
B2   B   0.888896474368447   0.777793865564362   0.624990602515647   1.0000000
B2   B   0.722221405447360   0.277752152290445   0.625056285074280   1.0000000
B2   B   0.055565396601892   0.777787759946751   0.125002182074396   1.0000000
B2   B   0.388893719974480   0.777783055181288   0.125003684318629   1.0000000
B2   B   0.222245867134227   0.277789600233781   0.124955208571439   1.0000000
B2   B   0.722221405447360   0.777802586490250   0.124943714925720   1.0000000
B2   B   0.555545529938091   0.277757958450151   0.124502332538633   1.0000000
B2   B   0.888910786576262   0.277776883204539   0.125006929508542   1.0000000
B2   B   0.055573938516144   0.444444492931682   0.624993550345449   1.0000000
B2   B   0.222234461341159   0.944457412342619   0.624995019775889   1.0000000
B2   B   0.555563418578498   0.944448375955913   0.625000702998225   1.0000000
B2   B   0.388831313348928   0.444458414928988   0.625206799005894   1.0000000
B2   B   0.888910786576262   0.944467236705058   0.624993070491459   1.0000000
B2   B   0.055573938516144   0.944462778917791   0.125006449654551   1.0000000
B2   B   0.722191057261198   0.444415389892630   0.625430265105713   1.0000000
B2   B   0.388893719974480   0.944443998126527   0.125003684318629   1.0000000
B2   B   0.222233571262743   0.444445813011845   0.124995477453252   1.0000000
B2   B   0.222234461341159   0.611110382331876   0.125004980224111   1.0000000
B2   B   0.555583919523973   0.444458626428651   0.124619646028443   1.0000000
B2   B   0.722235972098342   0.944463106020617   0.124997256233037   1.0000000
B2   B   0.888896474368447   0.444435942137420   0.125009397484353   1.0000000
B2   B   0.055565396601892   0.611110969988477   0.624997817925604   1.0000000
B2   B   0.222233571262743   0.111121091584234   0.625004522546747   1.0000000
B2   B   0.722191057261198   0.611109000701903   0.625430265105713   1.0000000
B2   B   0.555556581571487   0.111091179919995   0.625019316795703   1.0000000
B2   B   0.888916047004255   0.111124690168799   0.625001596478475   1.0000000


