data_1
_audit_creation_method   'vasp2cif'
_cell_length_a    14.93631414619966
_cell_length_b    14.936314146199727
_cell_length_c    13.341276283792837
_cell_angle_alpha    90.0
_cell_angle_beta    90.0
_cell_angle_gamma    119.99999999999984

_symmetry_space_group_name_H-M    'P 1'
loop_
_atom_site_label
_atom_site_type_symbol
_atom_site_fract_x
_atom_site_fract_y
_atom_site_fract_z
_atom_site_occupancy
O2   O   0.445533041435752   0.391979328964936   0.375000000000000   1.0000000
N2   N   0.111077309417893   0.055515704825443   0.125049355402957   1.0000000
N2   N   0.611068238887963   0.555475312814059   0.126721682289012   1.0000000
N2   N   0.444430806456115   0.055554436452771   0.124992212325034   1.0000000
N2   N   0.944422592223413   0.555533554992550   0.124926986860115   1.0000000
N2   N   0.777755028610220   0.055503712893245   0.125005817127970   1.0000000
N2   N   0.111095517262820   0.722209761721919   0.625010198838194   1.0000000
N2   N   0.444428702053836   0.722195976096781   0.624854721637016   1.0000000
N2   N   0.277711710969363   0.222171778603451   0.624887028002401   1.0000000
N2   N   0.777764810899015   0.722182523487738   0.624561607880785   1.0000000
N2   N   0.611099034526423   0.222195222466884   0.624978158904023   1.0000000
N2   N   0.944411715275254   0.222164118074715   0.625023106810757   1.0000000
N2   N   0.277761093822157   0.722209054016589   0.125028212087272   1.0000000
N2   N   0.111050692233480   0.222154183063266   0.125008573499091   1.0000000
N2   N   0.444406147680554   0.222199173965883   0.125050972787917   1.0000000
N2   N   0.611091132320689   0.722165872973882   0.125510911146706   1.0000000
N2   N   0.944437294085458   0.722212391579997   0.125023434453626   1.0000000
N2   N   0.777760606965441   0.222178573524209   0.124949053686363   1.0000000
N2   N   0.111101915797539   0.888879291529844   0.624971441621319   1.0000000
N2   N   0.444430301441570   0.888885148197800   0.624968248961197   1.0000000
N2   N   0.277736227427407   0.388820479980980   0.624806505083836   1.0000000
N2   N   0.611045855820131   0.388863362958282   0.625573147763636   1.0000000
N2   N   0.777762460030986   0.888842075161138   0.624880672169712   1.0000000
N2   N   0.944412906063799   0.388850086986536   0.625049955157065   1.0000000
N2   N   0.111080321189387   0.388844254648615   0.125035791278760   1.0000000
N2   N   0.277768549228948   0.888888158517875   0.124990943298492   1.0000000
N2   N   0.611089218374448   0.888857981623133   0.125077784909799   1.0000000
N2   N   0.444382844109939   0.388826165936506   0.125007540306619   1.0000000
N2   N   0.944438877922321   0.888862584894313   0.125077104533814   1.0000000
N2   N   0.777750649476674   0.388849960492809   0.124985807194117   1.0000000
N2   N   0.277758415459870   0.555520653372692   0.624935391169840   1.0000000
N2   N   0.111077309417893   0.055515704825443   0.624950644597043   1.0000000
N2   N   0.611068238887963   0.555475312814059   0.623278317710988   1.0000000
N2   N   0.444430806456115   0.055554436452771   0.625007787674966   1.0000000
N2   N   0.944422592223413   0.555533554992550   0.625073013139886   1.0000000
N2   N   0.111084006701956   0.555528117455034   0.124987830742061   1.0000000
N2   N   0.777755028610220   0.055503712893245   0.624994182872030   1.0000000
N2   N   0.277754597750046   0.055542826845496   0.124998924886357   1.0000000
N2   N   0.444440224930017   0.555517142462441   0.125421773948294   1.0000000
N2   N   0.777762120086347   0.555558810268716   0.125106739459190   1.0000000
N2   N   0.611095055164591   0.055536076638505   0.124983063239818   1.0000000
N2   N   0.444440224930017   0.555517142462441   0.624578226051707   1.0000000
N2   N   0.944413933222284   0.055495850952687   0.125044304285401   1.0000000
N2   N   0.277761093822157   0.722209054016589   0.624971787912728   1.0000000
N2   N   0.111050692233480   0.222154183063266   0.624991426500910   1.0000000
N2   N   0.444406147680554   0.222199173965883   0.624949027212083   1.0000000
N2   N   0.611091132320689   0.722165872973882   0.624489088853294   1.0000000
N2   N   0.944437294085458   0.722212391579997   0.624976565546375   1.0000000
N2   N   0.777760606965441   0.222178573524209   0.625050946313638   1.0000000
N2   N   0.111095517262820   0.722209761721919   0.124989801161806   1.0000000
N2   N   0.444428702053836   0.722195976096781   0.125145278362984   1.0000000
N2   N   0.277711710969363   0.222171778603451   0.125112971997599   1.0000000
N2   N   0.777764810899015   0.722182523487738   0.125438392119215   1.0000000
N2   N   0.611099034526423   0.222195222466884   0.125021841095977   1.0000000
N2   N   0.944411715275254   0.222164118074715   0.124976893189242   1.0000000
N2   N   0.111080321189387   0.388844254648615   0.624964208721240   1.0000000
N2   N   0.277768549228948   0.888888158517875   0.625009056701509   1.0000000
N2   N   0.611089218374448   0.888857981623133   0.624922215090201   1.0000000
N2   N   0.444382844109939   0.388826165936506   0.624992459693380   1.0000000
N2   N   0.944438877922321   0.888862584894313   0.624922895466185   1.0000000
N2   N   0.111101915797539   0.888879291529844   0.125028558378681   1.0000000
N2   N   0.777750649476674   0.388849960492809   0.625014192805883   1.0000000
N2   N   0.444430301441570   0.888885148197800   0.125031751038802   1.0000000
N2   N   0.277736227427407   0.388820479980980   0.125193494916165   1.0000000
N2   N   0.277758415459870   0.555520653372692   0.125064608830160   1.0000000
N2   N   0.611045855820131   0.388863362958282   0.124426852236363   1.0000000
N2   N   0.777762460030986   0.888842075161138   0.125119327830288   1.0000000
N2   N   0.944412906063799   0.388850086986536   0.124950044842935   1.0000000
N2   N   0.111084006701956   0.555528117455034   0.625012169257939   1.0000000
N2   N   0.277754597750046   0.055542826845496   0.625001075113643   1.0000000
N2   N   0.777762120086347   0.555558810268716   0.624893260540811   1.0000000
N2   N   0.611095055164591   0.055536076638505   0.625016936760182   1.0000000
N2   N   0.944413933222284   0.055495850952687   0.624955695714599   1.0000000
N2   N   0.054640147618619   0.110101679470502   0.375000000000000   1.0000000
N2   N   0.552454096462925   0.607724905287544   0.375000000000000   1.0000000
N2   N   0.390363655256062   0.115308918736958   0.375000000000000   1.0000000
N2   N   0.889340375741896   0.610194095537534   0.375000000000000   1.0000000
N2   N   0.721908829296259   0.110174555168741   0.375000000000000   1.0000000
N2   N   0.055555349092653   0.777765970005895   0.875000000000000   1.0000000
N2   N   0.388893904815989   0.777769731955494   0.875000000000000   1.0000000
N2   N   0.222224283938239   0.277779399568039   0.875000000000000   1.0000000
N2   N   0.722219361162384   0.777768940621906   0.875000000000000   1.0000000
N2   N   0.555559836715137   0.277770646603591   0.875000000000000   1.0000000
N2   N   0.888895855802600   0.277778064549570   0.875000000000000   1.0000000
N2   N   0.222847443800275   0.778243430855436   0.375000000000000   1.0000000
N2   N   0.054527474550952   0.276927890878101   0.375000000000000   1.0000000
N2   N   0.387826579257826   0.281266639724076   0.375000000000000   1.0000000
N2   N   0.554634784794625   0.776608216851995   0.375000000000000   1.0000000
N2   N   0.889715323250251   0.777572062363937   0.375000000000000   1.0000000
N2   N   0.723312308504155   0.277060095324579   0.375000000000000   1.0000000
N2   N   0.055551116121878   0.944436249638262   0.875000000000000   1.0000000
N2   N   0.388893047582416   0.944433353047129   0.875000000000000   1.0000000
N2   N   0.222224729183435   0.444444294003340   0.875000000000000   1.0000000
N2   N   0.555558789899597   0.444450068110443   0.875000000000000   1.0000000
N2   N   0.722223225644522   0.944439863064846   0.875000000000000   1.0000000
N2   N   0.888901122300612   0.444441863505198   0.875000000000000   1.0000000
N2   N   0.055608943834852   0.444029124538283   0.375000000000000   1.0000000
N2   N   0.223298925137601   0.945829284009415   0.375000000000000   1.0000000
N2   N   0.555238030317292   0.944083731466563   0.375000000000000   1.0000000
N2   N   0.385018405345915   0.440767583669410   0.375000000000000   1.0000000
N2   N   0.888351814891014   0.943323150480436   0.375000000000000   1.0000000
N2   N   0.721427999418078   0.441780391136713   0.375000000000000   1.0000000
N2   N   0.222225175330359   0.611104590812118   0.875000000000000   1.0000000
N2   N   0.055554484080670   0.111106344374863   0.875000000000000   1.0000000
N2   N   0.555556439741666   0.611103090088858   0.875000000000000   1.0000000
N2   N   0.388892199807714   0.111102471294605   0.875000000000000   1.0000000
N2   N   0.888893915096726   0.611099874576658   0.875000000000000   1.0000000
N2   N   0.056279141366808   0.611117571621521   0.375000000000000   1.0000000
N2   N   0.722223869989515   0.111106195027255   0.875000000000000   1.0000000
N2   N   0.223320303783969   0.112803758527033   0.375000000000000   1.0000000
N2   N   0.387927248804681   0.608789964997045   0.375000000000000   1.0000000
N2   N   0.723944621051984   0.609580189944491   0.375000000000000   1.0000000
N2   N   0.555898761244264   0.111742430111022   0.375000000000000   1.0000000
N2   N   0.388891379634098   0.611104939426199   0.875000000000000   1.0000000
N2   N   0.888197737132775   0.110006445555919   0.375000000000000   1.0000000
N2   N   0.222226022080863   0.777767102735161   0.875000000000000   1.0000000
N2   N   0.055558392275156   0.277777988550233   0.875000000000000   1.0000000
N2   N   0.388892548352865   0.277779230824698   0.875000000000000   1.0000000
N2   N   0.555557233215450   0.777769992601450   0.875000000000000   1.0000000
N2   N   0.888885502487049   0.777767494334946   0.875000000000000   1.0000000
N2   N   0.722228728988934   0.277773548537309   0.875000000000000   1.0000000
N2   N   0.056174080450023   0.777876247060226   0.375000000000000   1.0000000
N2   N   0.388840143613725   0.777247539614814   0.375000000000000   1.0000000
N2   N   0.219488831565570   0.276370852711804   0.375000000000000   1.0000000
N2   N   0.721517627833516   0.776242716863140   0.375000000000000   1.0000000
N2   N   0.556664919898092   0.277123958367702   0.375000000000000   1.0000000
N2   N   0.888849521993787   0.277055136415888   0.375000000000000   1.0000000
N2   N   0.055561384525252   0.444443523863080   0.875000000000000   1.0000000
N2   N   0.222221876022816   0.944433760138327   0.875000000000000   1.0000000
N2   N   0.555557623565605   0.944437255868344   0.875000000000000   1.0000000
N2   N   0.388892085815974   0.444448301625788   0.875000000000000   1.0000000
N2   N   0.888888380912558   0.944438811418693   0.875000000000000   1.0000000
N2   N   0.056265333941313   0.944857653203121   0.375000000000000   1.0000000
N2   N   0.722231178970324   0.444440603814888   0.875000000000000   1.0000000
N2   N   0.389397649742859   0.945750808422563   0.375000000000000   1.0000000
N2   N   0.221708569456189   0.443660315265207   0.375000000000000   1.0000000
N2   N   0.222285935673156   0.610807745659119   0.375000000000000   1.0000000
N2   N   0.721533095254509   0.943203250439831   0.375000000000000   1.0000000
N2   N   0.889392049104700   0.443984881353328   0.375000000000000   1.0000000
N2   N   0.055562358628263   0.611102691508162   0.875000000000000   1.0000000
N2   N   0.222220793650745   0.111105435169430   0.875000000000000   1.0000000
N2   N   0.722216495909931   0.611100776475298   0.875000000000000   1.0000000
N2   N   0.555556646397306   0.111099397609183   0.875000000000000   1.0000000
N2   N   0.888891962495951   0.111108049233831   0.875000000000000   1.0000000
B2   B   0.111898237858469   0.056250274778685   0.375000000000000   1.0000000
B2   B   0.623572232009663   0.577915501956902   0.375000000000000   1.0000000
B2   B   0.445258351433571   0.058259287418208   0.375000000000000   1.0000000
B2   B   0.944797922057031   0.554542922210797   0.375000000000000   1.0000000
B2   B   0.777149046168741   0.054914862021708   0.375000000000000   1.0000000
B2   B   0.111106659067785   0.722195455439449   0.875000000000000   1.0000000
B2   B   0.444425778002726   0.722221582998819   0.875000000000000   1.0000000
B2   B   0.277814755411244   0.222225715500404   0.875000000000000   1.0000000
B2   B   0.777785451526052   0.722183456840158   0.875000000000000   1.0000000
B2   B   0.611123327661850   0.222244576762192   0.875000000000000   1.0000000
B2   B   0.944431428987063   0.222246015099386   0.875000000000000   1.0000000
B2   B   0.277634444645871   0.722071846766895   0.375000000000000   1.0000000
B2   B   0.108981147267047   0.220826397121853   0.375000000000000   1.0000000
B2   B   0.449312786594537   0.230027220685896   0.375000000000000   1.0000000
B2   B   0.610824838454814   0.723518540556119   0.375000000000000   1.0000000
B2   B   0.944986803146412   0.720834622903111   0.375000000000000   1.0000000
B2   B   0.777583734592252   0.221783623978157   0.375000000000000   1.0000000
B2   B   0.111129064302718   0.888879484540028   0.875000000000000   1.0000000
B2   B   0.444448480793036   0.888914581507581   0.875000000000000   1.0000000
B2   B   0.277773111217307   0.388874412802862   0.875000000000000   1.0000000
B2   B   0.611134647423616   0.388843084713232   0.875000000000000   1.0000000
B2   B   0.777788338482811   0.888911700452595   0.875000000000000   1.0000000
B2   B   0.944417672541268   0.388884597373497   0.875000000000000   1.0000000
B2   B   0.110142736150393   0.387976833988977   0.375000000000000   1.0000000
B2   B   0.278488004119018   0.889831184820299   0.375000000000000   1.0000000
B2   B   0.610569428980980   0.888803877542700   0.375000000000000   1.0000000
B2   B   0.945343031231881   0.889170677870396   0.375000000000000   1.0000000
B2   B   0.776191868105327   0.388602226149952   0.375000000000000   1.0000000
B2   B   0.277747495215058   0.555538535353462   0.875000000000000   1.0000000
B2   B   0.111135936896082   0.055565000966665   0.875000000000000   1.0000000
B2   B   0.611109024314543   0.555482207376432   0.875000000000000   1.0000000
B2   B   0.444472515090968   0.055585064836040   0.875000000000000   1.0000000
B2   B   0.944427911849122   0.555508044501079   0.875000000000000   1.0000000
B2   B   0.111000542122345   0.555104323051402   0.375000000000000   1.0000000
B2   B   0.777778042982159   0.055600291399410   0.875000000000000   1.0000000
B2   B   0.279598624818486   0.057840606214335   0.375000000000000   1.0000000
B2   B   0.440464555435273   0.550820705012146   0.375000000000000   1.0000000
B2   B   0.777030207648783   0.548011531247756   0.375000000000000   1.0000000
B2   B   0.610827162699688   0.055932284190150   0.375000000000000   1.0000000
B2   B   0.444420010125982   0.555516406838544   0.875000000000000   1.0000000
B2   B   0.943720957228432   0.054711385252657   0.375000000000000   1.0000000
B2   B   0.277763220498207   0.722216557934351   0.875000000000000   1.0000000
B2   B   0.111115729390652   0.222232115068093   0.875000000000000   1.0000000
B2   B   0.444497564081088   0.222233117498697   0.875000000000000   1.0000000
B2   B   0.611105350324562   0.722212143078306   0.875000000000000   1.0000000
B2   B   0.944448108450558   0.722171420067923   0.875000000000000   1.0000000
B2   B   0.777763897456515   0.222253546675186   0.875000000000000   1.0000000
B2   B   0.111675314401060   0.722136459526918   0.375000000000000   1.0000000
B2   B   0.443185832493939   0.720768406099454   0.375000000000000   1.0000000
B2   B   0.277438698254014   0.224143524883145   0.375000000000000   1.0000000
B2   B   0.780378565502595   0.723932722206466   0.375000000000000   1.0000000
B2   B   0.612602697940215   0.224745904595123   0.375000000000000   1.0000000
B2   B   0.943505884984727   0.221408459425601   0.375000000000000   1.0000000
B2   B   0.111086076810380   0.388884477640288   0.875000000000000   1.0000000
B2   B   0.277792545183146   0.888894975496374   0.875000000000000   1.0000000
B2   B   0.611111340370865   0.888923980082910   0.875000000000000   1.0000000
B2   B   0.444464196106250   0.388853942361966   0.875000000000000   1.0000000
B2   B   0.944460062142210   0.888884379720296   0.875000000000000   1.0000000
B2   B   0.112109279847327   0.889378714793366   0.375000000000000   1.0000000
B2   B   0.777763521804116   0.388869428455163   0.875000000000000   1.0000000
B2   B   0.444223601886686   0.889289064043010   0.375000000000000   1.0000000
B2   B   0.274390847027552   0.385718561179431   0.375000000000000   1.0000000
B2   B   0.276545214551948   0.554462784367728   0.375000000000000   1.0000000
B2   B   0.777583794455051   0.888581683348916   0.375000000000000   1.0000000
B2   B   0.944040231735582   0.388336754490774   0.375000000000000   1.0000000
B2   B   0.111084012391316   0.555536349591119   0.875000000000000   1.0000000
B2   B   0.277819081899613   0.055569345411184   0.875000000000000   1.0000000
B2   B   0.777774076509868   0.555467247778230   0.875000000000000   1.0000000
B2   B   0.611115196241250   0.055600156262591   0.875000000000000   1.0000000
B2   B   0.944454218001181   0.055581006319554   0.875000000000000   1.0000000
B2   B   0.055548807366139   0.111070327141033   0.124975472280769   1.0000000
B2   B   0.555500328644026   0.610969341218877   0.125166626256367   1.0000000
B2   B   0.388979687230741   0.111229375833545   0.125182212558906   1.0000000
B2   B   0.888815107475608   0.610965673306167   0.125082992447440   1.0000000
B2   B   0.722196567675786   0.111197808273723   0.125031119070933   1.0000000
B2   B   0.055572113246963   0.777764669828320   0.625011904222946   1.0000000
B2   B   0.388832561099966   0.777852391579242   0.625036031054100   1.0000000
B2   B   0.222176352364450   0.277644751948651   0.625021404368143   1.0000000
B2   B   0.722303511900042   0.777806215731035   0.625048470137761   1.0000000
B2   B   0.555629594872118   0.277855038755632   0.624218751427784   1.0000000
B2   B   0.888776591986438   0.277753523259780   0.624955723717313   1.0000000
B2   B   0.222187644902404   0.777814449796417   0.124990454177502   1.0000000
B2   B   0.055469501246118   0.277708975095677   0.124970681676490   1.0000000
B2   B   0.388952159640593   0.277677950479025   0.125253518445295   1.0000000
B2   B   0.555513774349162   0.777841172107566   0.124919883911144   1.0000000
B2   B   0.889004613765881   0.777762131784830   0.124946173248687   1.0000000
B2   B   0.722130912491756   0.277815583304106   0.125380013280549   1.0000000
B2   B   0.055619650518388   0.944451304020683   0.625018890177478   1.0000000
B2   B   0.388913897120594   0.944580981467100   0.624976575118573   1.0000000
B2   B   0.222130048504518   0.444339426980280   0.625022979695475   1.0000000
B2   B   0.555492717970848   0.443972650261678   0.624506243376998   1.0000000
B2   B   0.722231138804030   0.944520618236442   0.625060187524908   1.0000000
B2   B   0.888673594425704   0.444320657676795   0.624805705102167   1.0000000
B2   B   0.055409757995937   0.444373417624058   0.125000963556006   1.0000000
B2   B   0.222270144106329   0.944502498526258   0.125007509731359   1.0000000
B2   B   0.555546123279369   0.944578666496198   0.124980859478282   1.0000000
B2   B   0.388867700872824   0.444189396591279   0.125094016893177   1.0000000
B2   B   0.888951294667464   0.944468172889582   0.124948746270339   1.0000000
B2   B   0.722007959650021   0.444186928384612   0.125971581420801   1.0000000
B2   B   0.222116188421058   0.611084929166971   0.625042273521126   1.0000000
B2   B   0.055548807366139   0.111070327141033   0.625024527719231   1.0000000
B2   B   0.555500328644026   0.610969341218877   0.624833373743633   1.0000000
B2   B   0.388979687230741   0.111229375833545   0.624817787441094   1.0000000
B2   B   0.888815107475608   0.610965673306167   0.624917007552560   1.0000000
B2   B   0.055433812794300   0.611041990269532   0.125001382238328   1.0000000
B2   B   0.722196567675786   0.111197808273723   0.624968880929066   1.0000000
B2   B   0.222257078729321   0.111086887140305   0.125031677201534   1.0000000
B2   B   0.388798690497965   0.611062119365020   0.124932407394848   1.0000000
B2   B   0.722330946513717   0.610916708395264   0.125264455579492   1.0000000
B2   B   0.555599332839501   0.111290340976231   0.125188161503081   1.0000000
B2   B   0.388798690497965   0.611062119365020   0.625067592605152   1.0000000
B2   B   0.888863081576026   0.111118556632080   0.124984211334741   1.0000000
B2   B   0.222187644902404   0.777814449796417   0.625009545822499   1.0000000
B2   B   0.055469501246118   0.277708975095677   0.625029318323510   1.0000000
B2   B   0.388952159640593   0.277677950479025   0.624746481554705   1.0000000
B2   B   0.555513774349162   0.777841172107566   0.625080116088855   1.0000000
B2   B   0.889004613765881   0.777762131784830   0.625053826751313   1.0000000
B2   B   0.722130912491756   0.277815583304106   0.624619986719451   1.0000000
B2   B   0.055572113246963   0.777764669828320   0.124988095777056   1.0000000
B2   B   0.388832561099966   0.777852391579242   0.124963968945899   1.0000000
B2   B   0.222176352364450   0.277644751948651   0.124978595631858   1.0000000
B2   B   0.722303511900042   0.777806215731035   0.124951529862238   1.0000000
B2   B   0.555629594872118   0.277855038755632   0.125781248572216   1.0000000
B2   B   0.888776591986438   0.277753523259780   0.125044276282687   1.0000000
B2   B   0.055409757995937   0.444373417624058   0.624999036443994   1.0000000
B2   B   0.222270144106329   0.944502498526258   0.624992490268641   1.0000000
B2   B   0.555546123279369   0.944578666496198   0.625019140521717   1.0000000
B2   B   0.388867700872824   0.444189396591279   0.624905983106824   1.0000000
B2   B   0.888951294667464   0.944468172889582   0.625051253729661   1.0000000
B2   B   0.055619650518388   0.944451304020683   0.124981109822522   1.0000000
B2   B   0.722007959650021   0.444186928384612   0.624028418579200   1.0000000
B2   B   0.388913897120594   0.944580981467100   0.125023424881428   1.0000000
B2   B   0.222130048504518   0.444339426980280   0.124977020304525   1.0000000
B2   B   0.222116188421058   0.611084929166971   0.124957726478875   1.0000000
B2   B   0.555492717970848   0.443972650261678   0.125493756623002   1.0000000
B2   B   0.722231138804030   0.944520618236442   0.124939812475092   1.0000000
B2   B   0.888673594425704   0.444320657676795   0.125194294897833   1.0000000
B2   B   0.055433812794300   0.611041990269532   0.624998617761672   1.0000000
B2   B   0.222257078729321   0.111086887140305   0.624968322798467   1.0000000
B2   B   0.722330946513717   0.610916708395264   0.624735544420507   1.0000000
B2   B   0.555599332839501   0.111290340976231   0.624811838496919   1.0000000
B2   B   0.888863081576026   0.111118556632080   0.625015788665258   1.0000000


