data_1
_audit_creation_method   'vasp2cif'
_cell_length_a    17.52789999999977
_cell_length_b    17.52789999999977
_cell_length_c    15.0
_cell_angle_alpha    90.0
_cell_angle_beta    90.0
_cell_angle_gamma    119.99999999999916

_symmetry_space_group_name_H-M    'P 1'
loop_
_atom_site_label
_atom_site_type_symbol
_atom_site_fract_x
_atom_site_fract_y
_atom_site_fract_z
_atom_site_occupancy
B2   B   0.909124341194774   0.953850269188710   0.110727205732746   1.0000000
B2   B   0.909105671487890   0.095897012083999   0.110761387200281   1.0000000
B2   B   0.909051273589069   0.237942420686134   0.110725357327932   1.0000000
B2   B   0.909056443354521   0.380393322495283   0.110694914343755   1.0000000
B2   B   0.908524622290542   0.523178601120490   0.110742412129476   1.0000000
B2   B   0.907672409969227   0.665836123862381   0.110761472022949   1.0000000
B2   B   0.904690116148859   0.807463658081997   0.110724747989844   1.0000000
B2   B   0.050390168073325   0.953511273848875   0.110694656803709   1.0000000
B2   B   0.052668872033390   0.097215800673223   0.110761060474948   1.0000000
B2   B   0.052223360172247   0.238931841977241   0.110809645901172   1.0000000
B2   B   0.050987496689282   0.381403281803842   0.110730719199368   1.0000000
B2   B   0.049439432223017   0.524608840047172   0.110708307443158   1.0000000
B2   B   0.049261829269503   0.667752118818190   0.110724767181741   1.0000000
B2   B   0.049086880419435   0.810484210590515   0.110723624801700   1.0000000
B2   B   0.192954161293842   0.954560569284756   0.110699856619075   1.0000000
B2   B   0.196072484693050   0.099043354058210   0.110710968879486   1.0000000
B2   B   0.196649864395509   0.240984797157036   0.110785358905817   1.0000000
B2   B   0.193797708059368   0.382287011780118   0.110757425433397   1.0000000
B2   B   0.189666074123864   0.525653603342609   0.110709075092360   1.0000000
B2   B   0.189932945874834   0.669028148344838   0.110753325276425   1.0000000
B2   B   0.191565924832330   0.811693595179399   0.110730426780535   1.0000000
B2   B   0.335195626863029   0.954591944506081   0.110724577577935   1.0000000
B2   B   0.337056499497966   0.097819100753952   0.110749742388447   1.0000000
B2   B   0.343377847225176   0.245591896222905   0.110757159776741   1.0000000
B2   B   0.340145402658236   0.383510757400884   0.110775830463026   1.0000000
B2   B   0.328567586186078   0.528640231324863   0.110691668264369   1.0000000
B2   B   0.329527590496425   0.670918435376384   0.110700054540175   1.0000000
B2   B   0.333750954964472   0.812575053023109   0.110785897843304   1.0000000
B2   B   0.477870759338123   0.953593729476605   0.110743665028043   1.0000000
B2   B   0.479056466062709   0.095304479585043   0.110759466214468   1.0000000
B2   B   0.480952010114423   0.237638080206097   0.110755472972544   1.0000000
B2   B   0.498288385401569   0.392134860490907   0.110766142400665   1.0000000
B2   B   0.467260036586112   0.669585308578642   0.110691677573116   1.0000000
B2   B   0.476501167566143   0.811936177821721   0.110745510193306   1.0000000
B2   B   0.621286544665812   0.954245899833787   0.110759258633216   1.0000000
B2   B   0.622063880561574   0.094653260388212   0.110736966048460   1.0000000
B2   B   0.623093843246547   0.234938582407605   0.110723192433029   1.0000000
B2   B   0.625780134776143   0.374375639242388   0.110793747914883   1.0000000
B2   B   0.614483411807072   0.501104150170687   0.110787386581265   1.0000000
B2   B   0.621267984961256   0.814191306568088   0.110689682584571   1.0000000
B2   B   0.765407477112415   0.953534912084249   0.110738245256260   1.0000000
B2   B   0.765623584117835   0.095238124164615   0.110728653168155   1.0000000
B2   B   0.766181869447498   0.236818257101993   0.110705922270819   1.0000000
B2   B   0.767375224440201   0.378606129050595   0.110710695555481   1.0000000
B2   B   0.766688149430430   0.519964576350873   0.110768317443666   1.0000000
B2   B   0.761741256018667   0.657672881644811   0.110748506616759   1.0000000
B2   B   0.766079155549384   0.811983942941666   0.110723098510354   1.0000000
Al2   Al   0.617921807138523   0.660042974083833   0.110868410062775   1.0000000
N2   N   0.954293904330582   0.904113753615373   0.110687339029096   1.0000000
N2   N   0.957318761675133   0.049102634922690   0.110744885026287   1.0000000
N2   N   0.957211061004448   0.191081244597010   0.110756186621293   1.0000000
N2   N   0.956632413865471   0.333095996411085   0.110701187737681   1.0000000
N2   N   0.955508648358856   0.475637810834512   0.110697463738500   1.0000000
N2   N   0.954906218992633   0.618594091492478   0.110736053844772   1.0000000
N2   N   0.953547383308073   0.761268729221814   0.110721958503908   1.0000000
N2   N   0.097597560469131   0.906022376474516   0.110686686927974   1.0000000
N2   N   0.100070432373803   0.049915814495024   0.110697945466509   1.0000000
N2   N   0.101327493171882   0.192950115600668   0.110780935445205   1.0000000
N2   N   0.099654951384673   0.334411935229487   0.110764283262739   1.0000000
N2   N   0.096453545738252   0.476690935912642   0.110693938302175   1.0000000
N2   N   0.096043345310074   0.619919067599864   0.110711133956472   1.0000000
N2   N   0.096593409779212   0.763059067104556   0.110706534433522   1.0000000
N2   N   0.240060342129621   0.906823199100378   0.110693039103588   1.0000000
N2   N   0.241971554007257   0.050303436076772   0.110696349887306   1.0000000
N2   N   0.246487303916132   0.196191578968254   0.110729302720158   1.0000000
N2   N   0.245307096675267   0.337441452396779   0.110767908974129   1.0000000
N2   N   0.237087479936424   0.477697275997624   0.110692986489015   1.0000000
N2   N   0.236350343513920   0.620848543411552   0.110704194044942   1.0000000
N2   N   0.238823218377907   0.764015747898723   0.110753654635729   1.0000000
N2   N   0.382599679344711   0.906967650008709   0.110734268234945   1.0000000
N2   N   0.383844050306076   0.049541655318652   0.110735660690895   1.0000000
N2   N   0.386298778519960   0.193722905910080   0.110733842895775   1.0000000
N2   N   0.396483438880563   0.345407768154162   0.110746720813287   1.0000000
N2   N   0.378907229371008   0.482249370961608   0.110743142081567   1.0000000
N2   N   0.375017789572503   0.622105183881153   0.110641034090917   1.0000000
N2   N   0.381042001295212   0.764817086254214   0.110748429511236   1.0000000
N2   N   0.525526345714533   0.906097338131994   0.110741335887344   1.0000000
N2   N   0.526626386367458   0.047955651800386   0.110731055066930   1.0000000
N2   N   0.527839814229779   0.189739876800177   0.110733374907551   1.0000000
N2   N   0.530857338057006   0.332051902708148   0.110757012388515   1.0000000
N2   N   0.462907353315151   0.526415713670412   0.110863329494554   1.0000000
N2   N   0.502677369418790   0.610710465031295   0.110819223921092   1.0000000
N2   N   0.523451957631302   0.762946261367317   0.110680144102581   1.0000000
N2   N   0.669162171410537   0.907722750378414   0.110723100839877   1.0000000
N2   N   0.670064976051847   0.048181964700015   0.110724979789739   1.0000000
N2   N   0.670889468974489   0.188763863100021   0.110707481790329   1.0000000
N2   N   0.672635301859740   0.328797024948371   0.110718595236247   1.0000000
N2   N   0.672442809678269   0.467497154265190   0.110776562975386   1.0000000
N2   N   0.665684156162498   0.597144244915480   0.110707237096342   1.0000000
N2   N   0.672092233720546   0.772037361512943   0.110664616594919   1.0000000
N2   N   0.814079903662999   0.906655459001687   0.110721985921277   1.0000000
N2   N   0.813615726773197   0.048238148038284   0.110727182815762   1.0000000
N2   N   0.813975943373059   0.189981205834648   0.110700147754833   1.0000000
N2   N   0.814516154554501   0.331693499382062   0.110676998751042   1.0000000
N2   N   0.814306173036351   0.473626787943844   0.110719097626189   1.0000000
N2   N   0.812953435725034   0.615359178337661   0.110755400012241   1.0000000
N2   N   0.807439790163444   0.756859174165663   0.110726536909919   1.0000000


