data_1
_audit_creation_method   'vasp2cif'
_cell_length_a    14.93631414619966
_cell_length_b    14.936314146199727
_cell_length_c    13.341276283792837
_cell_angle_alpha    90.0
_cell_angle_beta    90.0
_cell_angle_gamma    119.99999999999984

_symmetry_space_group_name_H-M    'P 1'
loop_
_atom_site_label
_atom_site_type_symbol
_atom_site_fract_x
_atom_site_fract_y
_atom_site_fract_z
_atom_site_occupancy
N2   N   0.111104304325376   0.055541234105974   0.125059747915911   1.0000000
N2   N   0.611075124123118   0.555542602084468   0.125351256649889   1.0000000
N2   N   0.444456864712595   0.055551037681151   0.125030665693216   1.0000000
N2   N   0.944438981141583   0.555550376005380   0.125017849343669   1.0000000
N2   N   0.777790400806001   0.055556014653922   0.125021259231755   1.0000000
N2   N   0.111105889118057   0.722218117314592   0.624975715096827   1.0000000
N2   N   0.444449363125777   0.722223153790382   0.624994506812694   1.0000000
N2   N   0.277767077504525   0.222207412930511   0.624948513480989   1.0000000
N2   N   0.777742255794248   0.722191185265242   0.624789299113216   1.0000000
N2   N   0.611124622297097   0.222207812123843   0.624990870858822   1.0000000
N2   N   0.944454547780854   0.222220130360845   0.624975912603389   1.0000000
N2   N   0.277781312306645   0.722223557128981   0.125018093781185   1.0000000
N2   N   0.111110020349014   0.222212066153630   0.125074356914769   1.0000000
N2   N   0.444446758289625   0.222210557975919   0.124925708341338   1.0000000
N2   N   0.611113613947336   0.722240979060008   0.124826740021473   1.0000000
N2   N   0.944425783761230   0.722210359343212   0.125082200149316   1.0000000
N2   N   0.777792564956657   0.222217906630471   0.125040485073754   1.0000000
N2   N   0.111104698787181   0.888881145692272   0.624985870169715   1.0000000
N2   N   0.444455432198707   0.888890320181143   0.624998266317273   1.0000000
N2   N   0.277774455749140   0.388881411242560   0.624998887328801   1.0000000
N2   N   0.611141995008599   0.388838922496536   0.625830207137235   1.0000000
N2   N   0.777781559900723   0.888888444403760   0.624988758066760   1.0000000
N2   N   0.944450347955273   0.388889106502209   0.624968629727030   1.0000000
N2   N   0.111112360638505   0.388888953507512   0.125052128601856   1.0000000
N2   N   0.277785130133566   0.888888256346448   0.125004559120317   1.0000000
N2   N   0.611118743799651   0.888895454202748   0.125006358702653   1.0000000
N2   N   0.444376497874376   0.388848858082209   0.124182165348159   1.0000000
N2   N   0.944432857004766   0.888872705376750   0.125048916004571   1.0000000
N2   N   0.777789417748253   0.388875497760964   0.124948674390898   1.0000000
N2   N   0.277761491588458   0.555549921313819   0.625054356375479   1.0000000
N2   N   0.111104304325376   0.055541234105974   0.624940252084089   1.0000000
N2   N   0.611075124123118   0.555542602084468   0.624648743350113   1.0000000
N2   N   0.444456864712595   0.055551037681151   0.624969334306785   1.0000000
N2   N   0.944438981141583   0.555550376005380   0.624982150656330   1.0000000
N2   N   0.111103363039635   0.555553041886430   0.125004938341851   1.0000000
N2   N   0.777790400806001   0.055556014653922   0.624978740768245   1.0000000
N2   N   0.277779229043803   0.055547544663077   0.125049817250792   1.0000000
N2   N   0.444397953276056   0.555543187639350   0.124426412683931   1.0000000
N2   N   0.777755749121569   0.555543901097662   0.125079051460293   1.0000000
N2   N   0.611122094576894   0.055553828003600   0.125036452345043   1.0000000
N2   N   0.444397953276056   0.555543187639350   0.625573587316070   1.0000000
N2   N   0.944447986460159   0.055547467795555   0.125031072285467   1.0000000
N2   N   0.277781312306645   0.722223557128981   0.624981906218815   1.0000000
N2   N   0.111110020349014   0.222212066153630   0.624925643085230   1.0000000
N2   N   0.444446758289625   0.222210557975919   0.625074291658661   1.0000000
N2   N   0.611113613947336   0.722240979060008   0.625173259978527   1.0000000
N2   N   0.944425783761230   0.722210359343212   0.624917799850684   1.0000000
N2   N   0.777792564956657   0.222217906630471   0.624959514926246   1.0000000
N2   N   0.111105889118057   0.722218117314592   0.125024284903172   1.0000000
N2   N   0.444449363125777   0.722223153790382   0.125005493187306   1.0000000
N2   N   0.277767077504525   0.222207412930511   0.125051486519011   1.0000000
N2   N   0.777742255794248   0.722191185265242   0.125210700886784   1.0000000
N2   N   0.611124622297097   0.222207812123843   0.125009129141178   1.0000000
N2   N   0.944454547780854   0.222220130360845   0.125024087396611   1.0000000
N2   N   0.111112360638505   0.388888953507512   0.624947871398143   1.0000000
N2   N   0.277785130133566   0.888888256346448   0.624995440879683   1.0000000
N2   N   0.611118743799651   0.888895454202748   0.624993641297347   1.0000000
N2   N   0.444376497874376   0.388848858082209   0.625817834651841   1.0000000
N2   N   0.944432857004766   0.888872705376750   0.624951083995429   1.0000000
N2   N   0.111104698787181   0.888881145692272   0.125014129830285   1.0000000
N2   N   0.777789417748253   0.388875497760964   0.625051325609094   1.0000000
N2   N   0.444455432198707   0.888890320181143   0.125001733682727   1.0000000
N2   N   0.277774455749140   0.388881411242560   0.125001112671200   1.0000000
N2   N   0.277761491588458   0.555549921313819   0.124945643624520   1.0000000
N2   N   0.611141995008599   0.388838922496536   0.124169792862764   1.0000000
N2   N   0.777781559900723   0.888888444403760   0.125011241933239   1.0000000
N2   N   0.944450347955273   0.388889106502209   0.125031370272969   1.0000000
N2   N   0.111103363039635   0.555553041886430   0.624995061658149   1.0000000
N2   N   0.277779229043803   0.055547544663077   0.624950182749208   1.0000000
N2   N   0.777755749121569   0.555543901097662   0.624920948539707   1.0000000
N2   N   0.611122094576894   0.055553828003600   0.624963547654958   1.0000000
N2   N   0.944447986460159   0.055547467795555   0.624968927714532   1.0000000
N2   N   0.055992801719550   0.111354891219229   0.375000000000000   1.0000000
N2   N   0.388958225944778   0.111260493187059   0.375000000000000   1.0000000
N2   N   0.889697750906419   0.611052241179540   0.375000000000000   1.0000000
N2   N   0.722047149883657   0.111786319164147   0.375000000000000   1.0000000
N2   N   0.055559512639286   0.777779869813832   0.875000000000000   1.0000000
N2   N   0.388892462996201   0.777782624713461   0.875000000000000   1.0000000
N2   N   0.222225758628046   0.277779567971297   0.875000000000000   1.0000000
N2   N   0.722228758973188   0.777780214671815   0.875000000000000   1.0000000
N2   N   0.555556687935206   0.277775218762504   0.875000000000000   1.0000000
N2   N   0.888894660745290   0.277782595764382   0.875000000000000   1.0000000
N2   N   0.222244774091194   0.777862690914468   0.375000000000000   1.0000000
N2   N   0.055717365078646   0.277755662087285   0.375000000000000   1.0000000
N2   N   0.392582405137841   0.280347411750146   0.375000000000000   1.0000000
N2   N   0.556092937401297   0.778094283610006   0.375000000000000   1.0000000
N2   N   0.887549289023136   0.776335902359824   0.375000000000000   1.0000000
N2   N   0.721402185157347   0.278559382012411   0.375000000000000   1.0000000
N2   N   0.055559011891749   0.944448109785091   0.875000000000000   1.0000000
N2   N   0.388892980157042   0.944445020703919   0.875000000000000   1.0000000
N2   N   0.222225978843456   0.444448155345142   0.875000000000000   1.0000000
N2   N   0.555563005825135   0.444453426285739   0.875000000000000   1.0000000
N2   N   0.722225737514186   0.944445760919095   0.875000000000000   1.0000000
N2   N   0.888898423658318   0.444449896343354   0.875000000000000   1.0000000
N2   N   0.055266178279125   0.444206604637689   0.375000000000000   1.0000000
N2   N   0.222271461424941   0.944590261506700   0.375000000000000   1.0000000
N2   N   0.555694344480561   0.945394143260389   0.375000000000000   1.0000000
N2   N   0.391234677157691   0.443454085230384   0.375000000000000   1.0000000
N2   N   0.889488667235907   0.944906722660854   0.375000000000000   1.0000000
N2   N   0.719496622316635   0.444995116989125   0.375000000000000   1.0000000
N2   N   0.222224085981168   0.611114293699061   0.875000000000000   1.0000000
N2   N   0.055559089013227   0.111111065954397   0.875000000000000   1.0000000
N2   N   0.555561028865611   0.611112352585885   0.875000000000000   1.0000000
N2   N   0.388891027539974   0.111106927975531   0.875000000000000   1.0000000
N2   N   0.888898632320081   0.611114445884597   0.875000000000000   1.0000000
N2   N   0.055516597460144   0.611004467881896   0.375000000000000   1.0000000
N2   N   0.722223336670188   0.111111605418559   0.875000000000000   1.0000000
N2   N   0.223477811132755   0.112209907590006   0.375000000000000   1.0000000
N2   N   0.386813998765000   0.610597550106069   0.375000000000000   1.0000000
N2   N   0.720322189432086   0.606043968653926   0.375000000000000   1.0000000
N2   N   0.555496675185551   0.113129695548578   0.375000000000000   1.0000000
N2   N   0.388890643358897   0.611115948540249   0.875000000000000   1.0000000
N2   N   0.888975406756622   0.111415092001721   0.375000000000000   1.0000000
N2   N   0.222225105965463   0.777779413411038   0.875000000000000   1.0000000
N2   N   0.055560458162230   0.277780770025413   0.875000000000000   1.0000000
N2   N   0.388891194619144   0.277776893612211   0.875000000000000   1.0000000
N2   N   0.555557652483807   0.777779947279559   0.875000000000000   1.0000000
N2   N   0.888895460926192   0.777782843322927   0.875000000000000   1.0000000
N2   N   0.722226216950987   0.277780485526606   0.875000000000000   1.0000000
N2   N   0.055499589332281   0.777806995362583   0.375000000000000   1.0000000
N2   N   0.389057304872033   0.777863562487135   0.375000000000000   1.0000000
N2   N   0.222898495558080   0.277631730178280   0.375000000000000   1.0000000
N2   N   0.723554704979180   0.778674983618231   0.375000000000000   1.0000000
N2   N   0.554802602327539   0.281909424020662   0.375000000000000   1.0000000
N2   N   0.888479798864740   0.277961726240369   0.375000000000000   1.0000000
N2   N   0.055560349329569   0.444448998959577   0.875000000000000   1.0000000
N2   N   0.222224258884291   0.944444023240455   0.875000000000000   1.0000000
N2   N   0.555557242744908   0.944446740815396   0.875000000000000   1.0000000
N2   N   0.388890726485336   0.444448684200923   0.875000000000000   1.0000000
N2   N   0.888896305920272   0.944448246045883   0.875000000000000   1.0000000
N2   N   0.055568648093158   0.944456164200466   0.375000000000000   1.0000000
N2   N   0.722234080170166   0.444452065264691   0.875000000000000   1.0000000
N2   N   0.389030353733739   0.944741478698946   0.375000000000000   1.0000000
N2   N   0.222928350094811   0.443984741421643   0.375000000000000   1.0000000
N2   N   0.221496478101468   0.610961877383109   0.375000000000000   1.0000000
N2   N   0.722464373203998   0.944889408606876   0.375000000000000   1.0000000
N2   N   0.887636343258873   0.444390720608266   0.375000000000000   1.0000000
N2   N   0.055561306774579   0.611112460926021   0.875000000000000   1.0000000
N2   N   0.222224093777048   0.111110507106310   0.875000000000000   1.0000000
N2   N   0.722228653586974   0.611114626084899   0.875000000000000   1.0000000
N2   N   0.555556482541406   0.111108933307511   0.875000000000000   1.0000000
N2   N   0.888894214695372   0.111112065256199   0.875000000000000   1.0000000
B2   B   0.111800416880285   0.056033190763715   0.375000000000000   1.0000000
B2   B   0.610123797741359   0.542367233546057   0.375000000000000   1.0000000
B2   B   0.444464558445905   0.055972554699272   0.375000000000000   1.0000000
B2   B   0.944682570207624   0.555320064870679   0.375000000000000   1.0000000
B2   B   0.777724279880198   0.056067973558630   0.375000000000000   1.0000000
B2   B   0.111119066147127   0.722222900386947   0.875000000000000   1.0000000
B2   B   0.444445216385000   0.722218052714734   0.875000000000000   1.0000000
B2   B   0.277797508719721   0.222233353348523   0.875000000000000   1.0000000
B2   B   0.777771905711667   0.722215277857610   0.875000000000000   1.0000000
B2   B   0.611104772894520   0.222229375642851   0.875000000000000   1.0000000
B2   B   0.944449774234528   0.222227545785515   0.875000000000000   1.0000000
B2   B   0.277757077754437   0.722185388699003   0.375000000000000   1.0000000
B2   B   0.111487037098694   0.222293090363855   0.375000000000000   1.0000000
B2   B   0.444535431661458   0.222162137963312   0.375000000000000   1.0000000
B2   B   0.613031841147481   0.723472321632945   0.375000000000000   1.0000000
B2   B   0.944497762606085   0.722046088883863   0.375000000000000   1.0000000
B2   B   0.777228554227881   0.222855799455899   0.375000000000000   1.0000000
B2   B   0.111119888375004   0.888893394146646   0.875000000000000   1.0000000
B2   B   0.444446138883596   0.888888902623928   0.875000000000000   1.0000000
B2   B   0.277796396432622   0.388900267762202   0.875000000000000   1.0000000
B2   B   0.611104339660928   0.388894771301460   0.875000000000000   1.0000000
B2   B   0.777775888546883   0.888885685569827   0.875000000000000   1.0000000
B2   B   0.944450634307125   0.388895603322306   0.875000000000000   1.0000000
B2   B   0.111352520198449   0.388768490996967   0.375000000000000   1.0000000
B2   B   0.277881590593452   0.889048097303705   0.375000000000000   1.0000000
B2   B   0.611182667991544   0.889456761633873   0.375000000000000   1.0000000
B2   B   0.451614011020978   0.391741374888290   0.375000000000000   1.0000000
B2   B   0.944073441124193   0.888402416327202   0.375000000000000   1.0000000
B2   B   0.775751732283131   0.389238380178343   0.375000000000000   1.0000000
B2   B   0.277791592534792   0.555563724140388   0.875000000000000   1.0000000
B2   B   0.111123485340238   0.055562733872800   0.875000000000000   1.0000000
B2   B   0.611101132116260   0.555541557098764   0.875000000000000   1.0000000
B2   B   0.444446823698557   0.055559307253606   0.875000000000000   1.0000000
B2   B   0.944450295387839   0.555556112836964   0.875000000000000   1.0000000
B2   B   0.110749975253649   0.555355142842481   0.375000000000000   1.0000000
B2   B   0.777776189875299   0.055555100587970   0.875000000000000   1.0000000
B2   B   0.278080697673210   0.055774052486409   0.375000000000000   1.0000000
B2   B   0.440132093282784   0.553321882204978   0.375000000000000   1.0000000
B2   B   0.779570242375271   0.554833824383566   0.375000000000000   1.0000000
B2   B   0.610913708660112   0.056861893191974   0.375000000000000   1.0000000
B2   B   0.444444844129378   0.555552362246420   0.875000000000000   1.0000000
B2   B   0.944839428568569   0.055991038222299   0.375000000000000   1.0000000
B2   B   0.277786008488566   0.722224577180577   0.875000000000000   1.0000000
B2   B   0.111124457680949   0.222230080988876   0.875000000000000   1.0000000
B2   B   0.444452400180699   0.222232607574482   0.875000000000000   1.0000000
B2   B   0.611103904987778   0.722213047004758   0.875000000000000   1.0000000
B2   B   0.944448100677396   0.722220480481427   0.875000000000000   1.0000000
B2   B   0.777775378620962   0.222227342742515   0.875000000000000   1.0000000
B2   B   0.111122636151620   0.722182888571721   0.375000000000000   1.0000000
B2   B   0.444399240612548   0.721899664863420   0.375000000000000   1.0000000
B2   B   0.280047900787305   0.223815961765246   0.375000000000000   1.0000000
B2   B   0.775926220969375   0.720081485948234   0.375000000000000   1.0000000
B2   B   0.610518240962299   0.225024127822777   0.375000000000000   1.0000000
B2   B   0.944368741910715   0.222495640414418   0.375000000000000   1.0000000
B2   B   0.111124044767805   0.388898695462690   0.875000000000000   1.0000000
B2   B   0.277786081472141   0.888892039615167   0.875000000000000   1.0000000
B2   B   0.611105868222318   0.888883158810464   0.875000000000000   1.0000000
B2   B   0.444458630069740   0.388898581190262   0.875000000000000   1.0000000
B2   B   0.944449876032629   0.888892787464503   0.875000000000000   1.0000000
B2   B   0.111210508239385   0.888974663706366   0.375000000000000   1.0000000
B2   B   0.777775214643877   0.388894775517899   0.875000000000000   1.0000000
B2   B   0.444528755308041   0.889137205074541   0.375000000000000   1.0000000
B2   B   0.278705877243331   0.388010983901229   0.375000000000000   1.0000000
B2   B   0.276692143584914   0.555321761844507   0.375000000000000   1.0000000
B2   B   0.606610261556505   0.394298172038538   0.375000000000000   1.0000000
B2   B   0.778616398173933   0.889690305408176   0.375000000000000   1.0000000
B2   B   0.943776169769564   0.388963947573288   0.375000000000000   1.0000000
B2   B   0.111121433023183   0.555560555739454   0.875000000000000   1.0000000
B2   B   0.277790697927169   0.055562438162388   0.875000000000000   1.0000000
B2   B   0.777772547748955   0.555547865865929   0.875000000000000   1.0000000
B2   B   0.611106559656054   0.055556083035496   0.875000000000000   1.0000000
B2   B   0.944450474792027   0.055559169647751   0.875000000000000   1.0000000
B2   B   0.055559438540085   0.111105102089982   0.125011358169448   1.0000000
B2   B   0.555494750141357   0.611092307843528   0.125089183765266   1.0000000
B2   B   0.388922689803850   0.111143263222207   0.125032319941664   1.0000000
B2   B   0.888854889593465   0.611077478261567   0.125004667414510   1.0000000
B2   B   0.722222889703300   0.111107735986279   0.125007298254244   1.0000000
B2   B   0.055558666912395   0.777772694789836   0.624998255058129   1.0000000
B2   B   0.388906302698141   0.777772769829809   0.624980702736807   1.0000000
B2   B   0.222244403435619   0.277781190116733   0.625006605084887   1.0000000
B2   B   0.722172799987406   0.777764185168205   0.624994242388614   1.0000000
B2   B   0.555576327577747   0.277805483643581   0.625232369752933   1.0000000
B2   B   0.888892480102414   0.277778634574000   0.624993644003961   1.0000000
B2   B   0.222238127058104   0.777778791752299   0.125000435365188   1.0000000
B2   B   0.055564173985229   0.277782316706172   0.125007802524232   1.0000000
B2   B   0.388927404439381   0.277814114110393   0.124777737838497   1.0000000
B2   B   0.555547928668174   0.777770284046021   0.124975110547974   1.0000000
B2   B   0.888866040813449   0.777759061198471   0.125025815193075   1.0000000
B2   B   0.722217478943901   0.277772050647602   0.124983565835264   1.0000000
B2   B   0.055555848122071   0.944436663759270   0.624993641343923   1.0000000
B2   B   0.388910673039949   0.944452647363261   0.624997183463854   1.0000000
B2   B   0.222239698589620   0.444458074597968   0.625009684417803   1.0000000
B2   B   0.555500420772206   0.444329475686542   0.624660080211528   1.0000000
B2   B   0.722213338535862   0.944439219391679   0.625003762071304   1.0000000
B2   B   0.888872677647661   0.444425045747382   0.625004185800347   1.0000000
B2   B   0.055559092568280   0.444447554223257   0.125008620501878   1.0000000
B2   B   0.222241272841005   0.944451405163128   0.125001045346312   1.0000000
B2   B   0.555561592350792   0.944442582282569   0.125009855807297   1.0000000
B2   B   0.388928583282147   0.444440572849356   0.124561121607551   1.0000000
B2   B   0.888875445131430   0.944436630097910   0.124999104720253   1.0000000
B2   B   0.722142297528341   0.444367948630153   0.124784557413810   1.0000000
B2   B   0.222230779517598   0.611107986463154   0.624999827394759   1.0000000
B2   B   0.055559438540085   0.111105102089982   0.624988641830552   1.0000000
B2   B   0.555494750141357   0.611092307843528   0.624910816234733   1.0000000
B2   B   0.388922689803850   0.111143263222207   0.624967680058336   1.0000000
B2   B   0.888854889593465   0.611077478261567   0.624995332585490   1.0000000
B2   B   0.055551162780091   0.611101740644170   0.124997867592684   1.0000000
B2   B   0.722222889703300   0.111107735986279   0.624992701745756   1.0000000
B2   B   0.222239876872394   0.111113526763056   0.125037723021268   1.0000000
B2   B   0.388898465260518   0.611094062152600   0.124865874880511   1.0000000
B2   B   0.722149688229114   0.611050250415207   0.125133699341585   1.0000000
B2   B   0.555568153889611   0.111117715236056   0.125031216127492   1.0000000
B2   B   0.388898465260518   0.611094062152600   0.625134125119489   1.0000000
B2   B   0.888890688245541   0.111108917917433   0.124997528598680   1.0000000
B2   B   0.222238127058104   0.777778791752299   0.624999564634812   1.0000000
B2   B   0.055564173985229   0.277782316706172   0.624992197475768   1.0000000
B2   B   0.388927404439381   0.277814114110393   0.625222262161503   1.0000000
B2   B   0.555547928668174   0.777770284046021   0.625024889452026   1.0000000
B2   B   0.888866040813449   0.777759061198471   0.624974184806925   1.0000000
B2   B   0.722217478943901   0.277772050647602   0.625016434164737   1.0000000
B2   B   0.055558666912395   0.777772694789836   0.125001744941871   1.0000000
B2   B   0.388906302698141   0.777772769829809   0.125019297263193   1.0000000
B2   B   0.222244403435619   0.277781190116733   0.124993394915112   1.0000000
B2   B   0.722172799987406   0.777764185168205   0.125005757611386   1.0000000
B2   B   0.555576327577747   0.277805483643581   0.124767630247068   1.0000000
B2   B   0.888892480102414   0.277778634574000   0.125006355996039   1.0000000
B2   B   0.055559092568280   0.444447554223257   0.624991379498129   1.0000000
B2   B   0.222241272841005   0.944451405163128   0.624998954653688   1.0000000
B2   B   0.555561592350792   0.944442582282569   0.624990144192704   1.0000000
B2   B   0.388928583282147   0.444440572849356   0.625438878392449   1.0000000
B2   B   0.888875445131430   0.944436630097910   0.625000895279747   1.0000000
B2   B   0.055555848122071   0.944436663759270   0.125006358656078   1.0000000
B2   B   0.722142297528341   0.444367948630153   0.625215442586190   1.0000000
B2   B   0.388910673039949   0.944452647363261   0.125002816536146   1.0000000
B2   B   0.222239698589620   0.444458074597968   0.124990315582197   1.0000000
B2   B   0.222230779517598   0.611107986463154   0.125000172605241   1.0000000
B2   B   0.555500420772206   0.444329475686542   0.125339919788472   1.0000000
B2   B   0.722213338535862   0.944439219391679   0.124996237928696   1.0000000
B2   B   0.888872677647661   0.444425045747382   0.124995814199660   1.0000000
B2   B   0.055551162780091   0.611101740644170   0.625002132407316   1.0000000
B2   B   0.222239876872394   0.111113526763056   0.624962276978732   1.0000000
B2   B   0.722149688229114   0.611050250415207   0.624866300658415   1.0000000
B2   B   0.555568153889611   0.111117715236056   0.624968783872508   1.0000000
B2   B   0.888890688245541   0.111108917917433   0.625002471401320   1.0000000
C2   C   0.554852364453381   0.605480812292117   0.375000000000000   1.0000000


