data_1
_audit_creation_method   'vasp2cif'
_cell_length_a    14.93631414619966
_cell_length_b    14.936314146199727
_cell_length_c    13.341276283792837
_cell_angle_alpha    90.0
_cell_angle_beta    90.0
_cell_angle_gamma    119.99999999999984

_symmetry_space_group_name_H-M    'P 1'
loop_
_atom_site_label
_atom_site_type_symbol
_atom_site_fract_x
_atom_site_fract_y
_atom_site_fract_z
_atom_site_occupancy
C2   C   0.444621796578979   0.389409772369051   0.375000000000000   1.0000000
N2   N   0.546068903703058   0.442868835146855   0.375000000000000   1.0000000
N2   N   0.111097616605723   0.055534550601409   0.124993627659504   1.0000000
N2   N   0.611110777783907   0.555529702107951   0.125380973578349   1.0000000
N2   N   0.444439125481707   0.055551178908470   0.124969830413102   1.0000000
N2   N   0.944424389073571   0.555543252567061   0.125232028209773   1.0000000
N2   N   0.777768600661004   0.055536124535756   0.124959189517172   1.0000000
N2   N   0.111102957636568   0.722212909084213   0.624987404957635   1.0000000
N2   N   0.444436490379417   0.722210915591762   0.625003800615389   1.0000000
N2   N   0.277773204063097   0.222213866148922   0.624812612121768   1.0000000
N2   N   0.777763574392453   0.722198777836139   0.624897962473438   1.0000000
N2   N   0.611122613278004   0.222223319121762   0.624876597586783   1.0000000
N2   N   0.944436945494167   0.222219242406461   0.624996828268447   1.0000000
N2   N   0.277771221596877   0.722218119883560   0.124966581488993   1.0000000
N2   N   0.111106077413766   0.222214977999112   0.125034153543465   1.0000000
N2   N   0.444419879135990   0.222219171549974   0.125133427122756   1.0000000
N2   N   0.611099626169215   0.722194092020850   0.125070606175500   1.0000000
N2   N   0.944435835084646   0.722204337376211   0.125056198739949   1.0000000
N2   N   0.777766177365532   0.222208106070692   0.125056104896004   1.0000000
N2   N   0.111102018334268   0.888873015507223   0.625042296458803   1.0000000
N2   N   0.444437692901742   0.888885368328565   0.625045407096516   1.0000000
N2   N   0.277789677397871   0.388885767091321   0.624796753126804   1.0000000
N2   N   0.611104907495838   0.388880710634700   0.625373649795387   1.0000000
N2   N   0.777768563723696   0.888869456551694   0.625024128336496   1.0000000
N2   N   0.944437502561618   0.388894651162663   0.624950213611391   1.0000000
N2   N   0.111110326650609   0.388891966621656   0.125015617033450   1.0000000
N2   N   0.277776164215817   0.888883659723658   0.124955221547057   1.0000000
N2   N   0.611094543141467   0.888868046474768   0.124979932188064   1.0000000
N2   N   0.444433160000854   0.388877332580525   0.125214188626996   1.0000000
N2   N   0.944431953856295   0.888864566263538   0.124996579508847   1.0000000
N2   N   0.777761534007894   0.388890664886696   0.125581700799215   1.0000000
N2   N   0.277778654878668   0.555556333539073   0.624963550443230   1.0000000
N2   N   0.111097616605723   0.055534550601409   0.625006372340496   1.0000000
N2   N   0.611110777783907   0.555529702107951   0.624619026421651   1.0000000
N2   N   0.444439125481707   0.055551178908470   0.625030169586898   1.0000000
N2   N   0.944424389073571   0.555543252567061   0.624767971790227   1.0000000
N2   N   0.111103758069038   0.555558018193611   0.125022749067371   1.0000000
N2   N   0.777768600661004   0.055536124535756   0.625040810482828   1.0000000
N2   N   0.277767617799041   0.055546642817311   0.124986458655986   1.0000000
N2   N   0.444442800742764   0.555533630683317   0.125195463679116   1.0000000
N2   N   0.777758941220757   0.555530005928150   0.125603931264337   1.0000000
N2   N   0.611102566124050   0.055546498019669   0.124981253526676   1.0000000
N2   N   0.444442800742764   0.555533630683317   0.624804536320884   1.0000000
N2   N   0.944433351053227   0.055534558680534   0.124977444290510   1.0000000
N2   N   0.277771221596877   0.722218119883560   0.625033418511007   1.0000000
N2   N   0.111106077413766   0.222214977999112   0.624965846456535   1.0000000
N2   N   0.444419879135990   0.222219171549974   0.624866572877244   1.0000000
N2   N   0.611099626169215   0.722194092020850   0.624929393824500   1.0000000
N2   N   0.944435835084646   0.722204337376211   0.624943801260051   1.0000000
N2   N   0.777766177365532   0.222208106070692   0.624943895103995   1.0000000
N2   N   0.111102957636568   0.722212909084213   0.125012595042365   1.0000000
N2   N   0.444436490379417   0.722210915591762   0.124996199384612   1.0000000
N2   N   0.277773204063097   0.222213866148922   0.125187387878232   1.0000000
N2   N   0.777763574392453   0.722198777836139   0.125102037526562   1.0000000
N2   N   0.611122613278004   0.222223319121762   0.125123402413216   1.0000000
N2   N   0.944436945494167   0.222219242406461   0.125003171731553   1.0000000
N2   N   0.111110326650609   0.388891966621656   0.624984382966550   1.0000000
N2   N   0.277776164215817   0.888883659723658   0.625044778452943   1.0000000
N2   N   0.611094543141467   0.888868046474768   0.625020067811937   1.0000000
N2   N   0.444433160000854   0.388877332580525   0.624785811373004   1.0000000
N2   N   0.944431953856295   0.888864566263538   0.625003420491154   1.0000000
N2   N   0.111102018334268   0.888873015507223   0.124957703541196   1.0000000
N2   N   0.777761534007894   0.388890664886696   0.624418299200784   1.0000000
N2   N   0.444437692901742   0.888885368328565   0.124954592903484   1.0000000
N2   N   0.277789677397871   0.388885767091321   0.125203246873196   1.0000000
N2   N   0.277778654878668   0.555556333539073   0.125036449556771   1.0000000
N2   N   0.611104907495838   0.388880710634700   0.124626350204613   1.0000000
N2   N   0.777768563723696   0.888869456551694   0.124975871663503   1.0000000
N2   N   0.944437502561618   0.388894651162663   0.125049786388610   1.0000000
N2   N   0.111103758069038   0.555558018193611   0.624977250932629   1.0000000
N2   N   0.277767617799041   0.055546642817311   0.625013541344013   1.0000000
N2   N   0.777758941220757   0.555530005928150   0.624396068735663   1.0000000
N2   N   0.611102566124050   0.055546498019669   0.625018746473324   1.0000000
N2   N   0.944433351053227   0.055534558680534   0.625022555709491   1.0000000
N2   N   0.055644239691086   0.111169039953808   0.375000000000000   1.0000000
N2   N   0.555210407745866   0.610697120328704   0.375000000000000   1.0000000
N2   N   0.389300587271993   0.113187854002262   0.375000000000000   1.0000000
N2   N   0.888303972592897   0.611184535575125   0.375000000000000   1.0000000
N2   N   0.722370056663150   0.110638433375505   0.375000000000000   1.0000000
N2   N   0.055567407041443   0.777798596931558   0.875000000000000   1.0000000
N2   N   0.388896951135576   0.777796898837238   0.875000000000000   1.0000000
N2   N   0.222226521719028   0.277790907027240   0.875000000000000   1.0000000
N2   N   0.722225926678701   0.777795396091242   0.875000000000000   1.0000000
N2   N   0.555558831477890   0.277786525023760   0.875000000000000   1.0000000
N2   N   0.888895370152730   0.277793794252586   0.875000000000000   1.0000000
N2   N   0.222235624134389   0.777913213750375   0.375000000000000   1.0000000
N2   N   0.055740125380147   0.277749792982343   0.375000000000000   1.0000000
N2   N   0.390860051035172   0.283699599836438   0.375000000000000   1.0000000
N2   N   0.555367499673577   0.777409515117983   0.375000000000000   1.0000000
N2   N   0.888355969469337   0.777509094809146   0.375000000000000   1.0000000
N2   N   0.723269261044038   0.277265484764474   0.375000000000000   1.0000000
N2   N   0.055558533055520   0.944462346163110   0.875000000000000   1.0000000
N2   N   0.388901216654369   0.944464474183463   0.875000000000000   1.0000000
N2   N   0.222227090624989   0.444458449833701   0.875000000000000   1.0000000
N2   N   0.555557760259040   0.444458783943989   0.875000000000000   1.0000000
N2   N   0.722229857221465   0.944461190059948   0.875000000000000   1.0000000
N2   N   0.888898082839627   0.444459839353590   0.875000000000000   1.0000000
N2   N   0.056111415946774   0.444339231266489   0.375000000000000   1.0000000
N2   N   0.222700343276230   0.945386112150187   0.375000000000000   1.0000000
N2   N   0.555438878259642   0.944274148087184   0.375000000000000   1.0000000
N2   N   0.390423282978336   0.441942332806119   0.375000000000000   1.0000000
N2   N   0.888878651552978   0.944353557498399   0.375000000000000   1.0000000
N2   N   0.723896619132437   0.445184547091370   0.375000000000000   1.0000000
N2   N   0.222227769630295   0.611129090698782   0.875000000000000   1.0000000
N2   N   0.055560779128536   0.111124761066923   0.875000000000000   1.0000000
N2   N   0.555560612740042   0.611121476190994   0.875000000000000   1.0000000
N2   N   0.388896520724091   0.111124768690109   0.875000000000000   1.0000000
N2   N   0.888896042475538   0.611125540107729   0.875000000000000   1.0000000
N2   N   0.055180250100847   0.610914970130632   0.375000000000000   1.0000000
N2   N   0.722226506082339   0.111124041113345   0.875000000000000   1.0000000
N2   N   0.223559462307068   0.113082067140222   0.375000000000000   1.0000000
N2   N   0.388996710326319   0.609882874173433   0.375000000000000   1.0000000
N2   N   0.720303817344428   0.609882868591187   0.375000000000000   1.0000000
N2   N   0.555698957991510   0.111056282849982   0.375000000000000   1.0000000
N2   N   0.388894934069821   0.611126003232986   0.875000000000000   1.0000000
N2   N   0.889022245901517   0.110950484772865   0.375000000000000   1.0000000
N2   N   0.222228660505407   0.777795757211492   0.875000000000000   1.0000000
N2   N   0.055560152683686   0.277792218434387   0.875000000000000   1.0000000
N2   N   0.388895779895361   0.277793198349255   0.875000000000000   1.0000000
N2   N   0.555562853926412   0.777798010232343   0.875000000000000   1.0000000
N2   N   0.888896778933990   0.777794883086156   0.875000000000000   1.0000000
N2   N   0.722229315458683   0.277792024295711   0.875000000000000   1.0000000
N2   N   0.055649313456891   0.778143466522493   0.375000000000000   1.0000000
N2   N   0.388870504027341   0.777489525353197   0.375000000000000   1.0000000
N2   N   0.221829937946650   0.277784876044300   0.375000000000000   1.0000000
N2   N   0.721958302718693   0.777606990372304   0.375000000000000   1.0000000
N2   N   0.552806666146692   0.271424322821253   0.375000000000000   1.0000000
N2   N   0.889316688519466   0.277604607779478   0.375000000000000   1.0000000
N2   N   0.055561351219129   0.444460492672422   0.875000000000000   1.0000000
N2   N   0.222232194138571   0.944462015019162   0.875000000000000   1.0000000
N2   N   0.555560204788432   0.944464239409779   0.875000000000000   1.0000000
N2   N   0.388894968824373   0.444461227615683   0.875000000000000   1.0000000
N2   N   0.888899061250453   0.944465213221429   0.875000000000000   1.0000000
N2   N   0.055948533185323   0.945043506927931   0.375000000000000   1.0000000
N2   N   0.722230560299202   0.444458079031097   0.875000000000000   1.0000000
N2   N   0.389005166955041   0.945080754491025   0.375000000000000   1.0000000
N2   N   0.223333436366727   0.444203330194265   0.375000000000000   1.0000000
N2   N   0.222355610911742   0.610852050287510   0.375000000000000   1.0000000
N2   N   0.722138032993623   0.944151743959781   0.375000000000000   1.0000000
N2   N   0.888931738925248   0.444085707065158   0.375000000000000   1.0000000
N2   N   0.055558401194938   0.611121458758888   0.875000000000000   1.0000000
N2   N   0.222226678174321   0.111124563914772   0.875000000000000   1.0000000
N2   N   0.722227752838620   0.611127589200345   0.875000000000000   1.0000000
N2   N   0.555562587836824   0.111126949183077   0.875000000000000   1.0000000
N2   N   0.888894622266305   0.111126238560840   0.875000000000000   1.0000000
B2   B   0.111688131973069   0.056304941741375   0.375000000000000   1.0000000
B2   B   0.608845159363813   0.553943054981930   0.375000000000000   1.0000000
B2   B   0.444570838564637   0.056519611918470   0.375000000000000   1.0000000
B2   B   0.944663107861303   0.555657291042418   0.375000000000000   1.0000000
B2   B   0.777880193418955   0.055152839369576   0.375000000000000   1.0000000
B2   B   0.111157713933881   0.722098245888204   0.875000000000000   1.0000000
B2   B   0.444270399405050   0.722230680373323   0.875000000000000   1.0000000
B2   B   0.277930862385810   0.222399497301075   0.875000000000000   1.0000000
B2   B   0.777940296946971   0.722427466357198   0.875000000000000   1.0000000
B2   B   0.611125825857639   0.222070672506414   0.875000000000000   1.0000000
B2   B   0.944263886900853   0.222200074301595   0.875000000000000   1.0000000
B2   B   0.277833981367010   0.722255050457592   0.375000000000000   1.0000000
B2   B   0.110302326025883   0.221727129585985   0.375000000000000   1.0000000
B2   B   0.445873430893714   0.225293996137439   0.375000000000000   1.0000000
B2   B   0.611224781767706   0.722713552448771   0.375000000000000   1.0000000
B2   B   0.944856046684732   0.723204061146171   0.375000000000000   1.0000000
B2   B   0.778527726249101   0.221105229428805   0.375000000000000   1.0000000
B2   B   0.111283028518267   0.889093981918379   0.875000000000000   1.0000000
B2   B   0.444480037533477   0.888762714999844   0.875000000000000   1.0000000
B2   B   0.277593322954849   0.388871426849827   0.875000000000000   1.0000000
B2   B   0.611239900143698   0.389041808826224   0.875000000000000   1.0000000
B2   B   0.777606839693086   0.888894858819893   0.875000000000000   1.0000000
B2   B   0.944478351570592   0.388742370588797   0.875000000000000   1.0000000
B2   B   0.111603983384790   0.388641262803715   0.375000000000000   1.0000000
B2   B   0.277978515398776   0.889366380829267   0.375000000000000   1.0000000
B2   B   0.611054591249289   0.888847340138682   0.375000000000000   1.0000000
B2   B   0.944671709534651   0.889315876447098   0.375000000000000   1.0000000
B2   B   0.778686100028502   0.385912720491641   0.375000000000000   1.0000000
B2   B   0.277805649252411   0.555425985815011   0.875000000000000   1.0000000
B2   B   0.110935263176186   0.055541341693430   0.875000000000000   1.0000000
B2   B   0.610933531041551   0.555535754721516   0.875000000000000   1.0000000
B2   B   0.444606578314097   0.055746848928494   0.875000000000000   1.0000000
B2   B   0.944612826321903   0.555746330673577   0.875000000000000   1.0000000
B2   B   0.111330638289987   0.555450679885740   0.375000000000000   1.0000000
B2   B   0.777805634815287   0.055417909045097   0.875000000000000   1.0000000
B2   B   0.278345373144671   0.056587321233281   0.375000000000000   1.0000000
B2   B   0.445140116600266   0.555453056445920   0.375000000000000   1.0000000
B2   B   0.778021396517445   0.558382945784244   0.375000000000000   1.0000000
B2   B   0.611127633177971   0.055254160875162   0.375000000000000   1.0000000
B2   B   0.444597249721460   0.555753817899111   0.875000000000000   1.0000000
B2   B   0.944432102240848   0.055399936690075   0.375000000000000   1.0000000
B2   B   0.277943366271535   0.722428980607128   0.875000000000000   1.0000000
B2   B   0.111128544333268   0.222071613301887   0.875000000000000   1.0000000
B2   B   0.444283455669795   0.222194507978807   0.875000000000000   1.0000000
B2   B   0.611147418841822   0.722102638969543   0.875000000000000   1.0000000
B2   B   0.944286724571229   0.722228318812552   0.875000000000000   1.0000000
B2   B   0.777928281310062   0.222401197308816   0.875000000000000   1.0000000
B2   B   0.111290126739085   0.722580132617201   0.375000000000000   1.0000000
B2   B   0.444363704413168   0.721841233141425   0.375000000000000   1.0000000
B2   B   0.277521206633006   0.223707881009181   0.375000000000000   1.0000000
B2   B   0.777275889199062   0.722477556214563   0.375000000000000   1.0000000
B2   B   0.612083820311166   0.222384353924391   0.375000000000000   1.0000000
B2   B   0.944677004139751   0.221798381148496   0.375000000000000   1.0000000
B2   B   0.111258937485299   0.389073749644933   0.875000000000000   1.0000000
B2   B   0.277615922988270   0.888886711924278   0.875000000000000   1.0000000
B2   B   0.611272326875822   0.889098124747678   0.875000000000000   1.0000000
B2   B   0.444476525259801   0.388740655946779   0.875000000000000   1.0000000
B2   B   0.944484466041852   0.888767020022207   0.875000000000000   1.0000000
B2   B   0.111568401879983   0.889586612333364   0.375000000000000   1.0000000
B2   B   0.777606596751017   0.388855022016934   0.875000000000000   1.0000000
B2   B   0.444327116430422   0.889011787121700   0.375000000000000   1.0000000
B2   B   0.277097499184381   0.387495485077344   0.375000000000000   1.0000000
B2   B   0.277909978698338   0.555359502471852   0.375000000000000   1.0000000
B2   B   0.777840575471316   0.889026599664579   0.375000000000000   1.0000000
B2   B   0.945228573466635   0.388359022250182   0.375000000000000   1.0000000
B2   B   0.110941670060070   0.555545177503411   0.875000000000000   1.0000000
B2   B   0.277819878273281   0.055413556289280   0.875000000000000   1.0000000
B2   B   0.777814244240405   0.555424043276335   0.875000000000000   1.0000000
B2   B   0.610932403372607   0.055544518806555   0.875000000000000   1.0000000
B2   B   0.944599464099066   0.055750098192723   0.875000000000000   1.0000000
B2   B   0.055519168902312   0.111056835455127   0.125017119029623   1.0000000
B2   B   0.555574821857904   0.611155542242971   0.125023463907250   1.0000000
B2   B   0.388888387125094   0.111072295150076   0.125100271015382   1.0000000
B2   B   0.888952964752170   0.611169907254962   0.125115070676937   1.0000000
B2   B   0.722177260766094   0.111040543420142   0.125089908112916   1.0000000
B2   B   0.055609914261190   0.777812818205536   0.624918929664623   1.0000000
B2   B   0.388889021883658   0.777820365384157   0.624967056068597   1.0000000
B2   B   0.222160934528534   0.277717376943337   0.624998780423428   1.0000000
B2   B   0.722229171571319   0.777829315122843   0.624969366772088   1.0000000
B2   B   0.555559380308902   0.277770948395599   0.624524732788990   1.0000000
B2   B   0.888871201192686   0.277734777176305   0.624997771588752   1.0000000
B2   B   0.222260142457141   0.777816823219811   0.125067687766748   1.0000000
B2   B   0.055523566688384   0.277758139064126   0.125067673160469   1.0000000
B2   B   0.388906274536701   0.277708929344790   0.124870376678368   1.0000000
B2   B   0.555538739911189   0.777816270106048   0.125083978772820   1.0000000
B2   B   0.888924217811677   0.777820706126204   0.125003114446802   1.0000000
B2   B   0.722128702263460   0.277649348906565   0.125134186956816   1.0000000
B2   B   0.055557387746888   0.944419300830004   0.624956967337384   1.0000000
B2   B   0.388890040621348   0.944442742314379   0.624887864206125   1.0000000
B2   B   0.222193826448578   0.444475093676199   0.624991052147749   1.0000000
B2   B   0.555593249381322   0.444347047119028   0.624856994423482   1.0000000
B2   B   0.722201525167081   0.944438080502088   0.624967017081473   1.0000000
B2   B   0.888919616932691   0.444428623867648   0.624834456557823   1.0000000
B2   B   0.055570558244268   0.444466967673670   0.125027494805152   1.0000000
B2   B   0.222232748375185   0.944419401582233   0.125024195125600   1.0000000
B2   B   0.555525711704734   0.944433185833757   0.125071630516366   1.0000000
B2   B   0.388892500604432   0.444428699733941   0.124884893212942   1.0000000
B2   B   0.888878412115023   0.944437679658391   0.125088843938541   1.0000000
B2   B   0.722050623664239   0.444328331045806   0.124955694298749   1.0000000
B2   B   0.222240238703728   0.611169747332169   0.624912085173423   1.0000000
B2   B   0.055519168902312   0.111056835455127   0.624982880970378   1.0000000
B2   B   0.555574821857904   0.611155542242971   0.624976536092750   1.0000000
B2   B   0.388888387125094   0.111072295150076   0.624899728984617   1.0000000
B2   B   0.888952964752170   0.611169907254962   0.624884929323063   1.0000000
B2   B   0.055634904028323   0.611169298388362   0.125041622297265   1.0000000
B2   B   0.722177260766094   0.111040543420142   0.624910091887084   1.0000000
B2   B   0.222180833853801   0.111013246246593   0.125072040153674   1.0000000
B2   B   0.388872767801916   0.611172053634429   0.125031555144700   1.0000000
B2   B   0.722213664103166   0.611155915449783   0.125177185441107   1.0000000
B2   B   0.555527078696873   0.111069949669467   0.125091987319694   1.0000000
B2   B   0.388872767801916   0.611172053634429   0.624968444855301   1.0000000
B2   B   0.888853586922942   0.111068511428805   0.125052243393069   1.0000000
B2   B   0.222260142457141   0.777816823219811   0.624932312233252   1.0000000
B2   B   0.055523566688384   0.277758139064126   0.624932326839531   1.0000000
B2   B   0.388906274536701   0.277708929344790   0.625129623321632   1.0000000
B2   B   0.555538739911189   0.777816270106048   0.624916021227180   1.0000000
B2   B   0.888924217811677   0.777820706126204   0.624996885553199   1.0000000
B2   B   0.722128702263460   0.277649348906565   0.624865813043184   1.0000000
B2   B   0.055609914261190   0.777812818205536   0.125081070335377   1.0000000
B2   B   0.388889021883658   0.777820365384157   0.125032943931403   1.0000000
B2   B   0.222160934528534   0.277717376943337   0.125001219576572   1.0000000
B2   B   0.722229171571319   0.777829315122843   0.125030633227912   1.0000000
B2   B   0.555559380308902   0.277770948395599   0.125475267211010   1.0000000
B2   B   0.888871201192686   0.277734777176305   0.125002228411247   1.0000000
B2   B   0.055570558244268   0.444466967673670   0.624972505194849   1.0000000
B2   B   0.222232748375185   0.944419401582233   0.624975804874400   1.0000000
B2   B   0.555525711704734   0.944433185833757   0.624928369483633   1.0000000
B2   B   0.388892500604432   0.444428699733941   0.625115106787058   1.0000000
B2   B   0.888878412115023   0.944437679658391   0.624911156061460   1.0000000
B2   B   0.055557387746888   0.944419300830004   0.125043032662616   1.0000000
B2   B   0.722050623664239   0.444328331045806   0.625044305701251   1.0000000
B2   B   0.388890040621348   0.944442742314379   0.125112135793875   1.0000000
B2   B   0.222193826448578   0.444475093676199   0.125008947852251   1.0000000
B2   B   0.222240238703728   0.611169747332169   0.125087914826577   1.0000000
B2   B   0.555593249381322   0.444347047119028   0.125143005576518   1.0000000
B2   B   0.722201525167081   0.944438080502088   0.125032982918527   1.0000000
B2   B   0.888919616932691   0.444428623867648   0.125165543442177   1.0000000
B2   B   0.055634904028323   0.611169298388362   0.624958377702735   1.0000000
B2   B   0.222180833853801   0.111013246246593   0.624927959846326   1.0000000
B2   B   0.722213664103166   0.611155915449783   0.624822814558893   1.0000000
B2   B   0.555527078696873   0.111069949669467   0.624908012680306   1.0000000
B2   B   0.888853586922942   0.111068511428805   0.624947756606930   1.0000000


