data_1
_audit_creation_method   'vasp2cif'
_cell_length_a    14.93631414619966
_cell_length_b    14.936314146199727
_cell_length_c    13.341276283792837
_cell_angle_alpha    90.0
_cell_angle_beta    90.0
_cell_angle_gamma    119.99999999999984

_symmetry_space_group_name_H-M    'P 1'
loop_
_atom_site_label
_atom_site_type_symbol
_atom_site_fract_x
_atom_site_fract_y
_atom_site_fract_z
_atom_site_occupancy
C2   C   0.396548475510616   0.439881577148030   0.375000000000000   1.0000000
C2   C   0.450263642511912   0.383183992363685   0.375000000000000   1.0000000
N2   N   0.111138160752791   0.055581192261887   0.125431805444724   1.0000000
N2   N   0.611108653569528   0.555560089970869   0.127834193754317   1.0000000
N2   N   0.444431878373990   0.055563683533010   0.125497053595938   1.0000000
N2   N   0.944471394580170   0.555597990582084   0.125271786583010   1.0000000
N2   N   0.777781136111125   0.055583975474106   0.125055491649909   1.0000000
N2   N   0.111130117268076   0.722248218069222   0.624844250364842   1.0000000
N2   N   0.444444186339942   0.722246833023823   0.624508388519516   1.0000000
N2   N   0.277817077295016   0.222272805482362   0.623699743830392   1.0000000
N2   N   0.777794139119229   0.722231815019095   0.624120038960662   1.0000000
N2   N   0.611093863361505   0.222244033073270   0.624289082755479   1.0000000
N2   N   0.944459065517103   0.222267871432817   0.624870671642162   1.0000000
N2   N   0.277782327694681   0.722246123347589   0.125281514267708   1.0000000
N2   N   0.111134633513609   0.222261431129862   0.125447366157844   1.0000000
N2   N   0.444434868193574   0.222247888722991   0.126619551434965   1.0000000
N2   N   0.611116208044923   0.722231769055308   0.125917100719325   1.0000000
N2   N   0.944474452974815   0.722247048174422   0.125314294912777   1.0000000
N2   N   0.777774515217210   0.222263866355210   0.125165340761983   1.0000000
N2   N   0.111133943842858   0.888910263581109   0.624752078638726   1.0000000
N2   N   0.444434793242034   0.888906126564481   0.624844558298906   1.0000000
N2   N   0.277784987739963   0.388925275219794   0.624048995961108   1.0000000
N2   N   0.611099621317547   0.388905077226522   0.622919136272024   1.0000000
N2   N   0.777794664383395   0.888908153647262   0.624820416945413   1.0000000
N2   N   0.944456590304926   0.388942111422412   0.624850149903820   1.0000000
N2   N   0.111125745144669   0.388939037162058   0.125345467128858   1.0000000
N2   N   0.277780221312050   0.888905361584545   0.125279946484016   1.0000000
N2   N   0.611103314554841   0.888905338577074   0.125139210516577   1.0000000
N2   N   0.444438748818596   0.388889099516529   0.126461992721555   1.0000000
N2   N   0.944474472128161   0.888909482303856   0.125162633496790   1.0000000
N2   N   0.777779978620875   0.388935288180791   0.125661071831233   1.0000000
N2   N   0.277799427045215   0.555590951857272   0.624342104885081   1.0000000
N2   N   0.111138160752791   0.055581192261887   0.624568194555275   1.0000000
N2   N   0.611108653569528   0.555560089970869   0.622165806245684   1.0000000
N2   N   0.444431878373990   0.055563683533010   0.624502946404061   1.0000000
N2   N   0.944471394580170   0.555597990582084   0.624728213416990   1.0000000
N2   N   0.111131115679206   0.555596959161999   0.125236405804535   1.0000000
N2   N   0.777781136111125   0.055583975474106   0.624944508350091   1.0000000
N2   N   0.277791879686644   0.055584026462453   0.125772774723467   1.0000000
N2   N   0.444464490713228   0.555588908535731   0.126435922681032   1.0000000
N2   N   0.777791248155786   0.555582177541587   0.126206519755586   1.0000000
N2   N   0.611093915926960   0.055573468031681   0.125120451660955   1.0000000
N2   N   0.444464490713229   0.555588908535731   0.623564077318967   1.0000000
N2   N   0.944470530046334   0.055585073276836   0.125128064144061   1.0000000
N2   N   0.277782327694681   0.722246123347589   0.624718485732291   1.0000000
N2   N   0.111134633513609   0.222261431129862   0.624552633842157   1.0000000
N2   N   0.444434868193574   0.222247888722991   0.623380448565036   1.0000000
N2   N   0.611116208044923   0.722231769055308   0.624082899280675   1.0000000
N2   N   0.944474452974815   0.722247048174422   0.624685705087222   1.0000000
N2   N   0.777774515217210   0.222263866355210   0.624834659238017   1.0000000
N2   N   0.111130117268076   0.722248218069222   0.125155749635159   1.0000000
N2   N   0.444444186339942   0.722246833023823   0.125491611480485   1.0000000
N2   N   0.277817077295016   0.222272805482362   0.126300256169607   1.0000000
N2   N   0.777794139119229   0.722231815019095   0.125879961039338   1.0000000
N2   N   0.611093863361505   0.222244033073270   0.125710917244522   1.0000000
N2   N   0.944459065517103   0.222267871432817   0.125129328357837   1.0000000
N2   N   0.111125745144669   0.388939037162058   0.624654532871142   1.0000000
N2   N   0.277780221312050   0.888905361584545   0.624720053515985   1.0000000
N2   N   0.611103314554841   0.888905338577074   0.624860789483425   1.0000000
N2   N   0.444438748818596   0.388889099516529   0.623538007278446   1.0000000
N2   N   0.944474472128161   0.888909482303856   0.624837366503210   1.0000000
N2   N   0.111133943842858   0.888910263581109   0.125247921361276   1.0000000
N2   N   0.777779978620875   0.388935288180791   0.624338928168766   1.0000000
N2   N   0.444434793242034   0.888906126564481   0.125155441701093   1.0000000
N2   N   0.277784987739963   0.388925275219794   0.125951004038892   1.0000000
N2   N   0.277799427045215   0.555590951857272   0.125657895114920   1.0000000
N2   N   0.611099621317547   0.388905077226522   0.127080863727977   1.0000000
N2   N   0.777794664383395   0.888908153647262   0.125179583054585   1.0000000
N2   N   0.944456590304926   0.388942111422412   0.125149850096182   1.0000000
N2   N   0.111131115679206   0.555596959161999   0.624763594195466   1.0000000
N2   N   0.277791879686644   0.055584026462453   0.624227225276532   1.0000000
N2   N   0.777791248155786   0.555582177541587   0.623793480244414   1.0000000
N2   N   0.611093915926960   0.055573468031681   0.624879548339045   1.0000000
N2   N   0.944470530046334   0.055585073276836   0.624871935855938   1.0000000
N2   N   0.055026578473816   0.110576272867887   0.375000000000000   1.0000000
N2   N   0.556906529949022   0.613956924648557   0.375000000000000   1.0000000
N2   N   0.388075367397221   0.109939854258383   0.375000000000000   1.0000000
N2   N   0.887666702123689   0.610273553385772   0.375000000000000   1.0000000
N2   N   0.721732118316434   0.111522943331533   0.375000000000000   1.0000000
N2   N   0.055551968906583   0.777771207175996   0.875000000000000   1.0000000
N2   N   0.388899118425395   0.777770793811335   0.875000000000000   1.0000000
N2   N   0.222220380190085   0.277765757416694   0.875000000000000   1.0000000
N2   N   0.722222566355329   0.777769519091031   0.875000000000000   1.0000000
N2   N   0.555559520371620   0.277770697291669   0.875000000000000   1.0000000
N2   N   0.888891827758717   0.277769540412644   0.875000000000000   1.0000000
N2   N   0.221736920782460   0.776647786617968   0.375000000000000   1.0000000
N2   N   0.054877901101893   0.277355367275038   0.375000000000000   1.0000000
N2   N   0.392984679773991   0.281025358563464   0.375000000000000   1.0000000
N2   N   0.555822444696034   0.778936347665498   0.375000000000000   1.0000000
N2   N   0.889765243962347   0.778628191052356   0.375000000000000   1.0000000
N2   N   0.720763786799597   0.277821226131414   0.375000000000000   1.0000000
N2   N   0.055553408743152   0.944442425937757   0.875000000000000   1.0000000
N2   N   0.388900131310093   0.944443290826836   0.875000000000000   1.0000000
N2   N   0.222222017446161   0.444430991604315   0.875000000000000   1.0000000
N2   N   0.555558926789416   0.444436772858288   0.875000000000000   1.0000000
N2   N   0.722227189402282   0.944438847545660   0.875000000000000   1.0000000
N2   N   0.888889271485707   0.444433365004149   0.875000000000000   1.0000000
N2   N   0.054624002186427   0.443680339931160   0.375000000000000   1.0000000
N2   N   0.221797860023237   0.943795655276993   0.375000000000000   1.0000000
N2   N   0.555245596875055   0.944645023743097   0.375000000000000   1.0000000
N2   N   0.889294334615101   0.945146762963605   0.375000000000000   1.0000000
N2   N   0.715667082179361   0.444084718813541   0.375000000000000   1.0000000
N2   N   0.222225860443113   0.611097549759396   0.875000000000000   1.0000000
N2   N   0.055552034019789   0.111101353449694   0.875000000000000   1.0000000
N2   N   0.555558293225145   0.611097226550621   0.875000000000000   1.0000000
N2   N   0.388896712217309   0.111109672020327   0.875000000000000   1.0000000
N2   N   0.888880692687323   0.611096799022915   0.875000000000000   1.0000000
N2   N   0.054756771006325   0.610066210125381   0.375000000000000   1.0000000
N2   N   0.722225499546098   0.111102692270813   0.875000000000000   1.0000000
N2   N   0.223266644304596   0.111952804151915   0.375000000000000   1.0000000
N2   N   0.389972061319548   0.610602324062657   0.375000000000000   1.0000000
N2   N   0.723709412370465   0.611981386401458   0.375000000000000   1.0000000
N2   N   0.554748283436956   0.110677848285393   0.375000000000000   1.0000000
N2   N   0.388896090490572   0.611097112929432   0.875000000000000   1.0000000
N2   N   0.888624194716837   0.111464952423426   0.375000000000000   1.0000000
N2   N   0.222228090567993   0.777772482604316   0.875000000000000   1.0000000
N2   N   0.055554331503007   0.277766258710892   0.875000000000000   1.0000000
N2   N   0.388890704624802   0.277769094132928   0.875000000000000   1.0000000
N2   N   0.555563713589599   0.777769533402586   0.875000000000000   1.0000000
N2   N   0.888883546708158   0.777771112040916   0.875000000000000   1.0000000
N2   N   0.722225582891790   0.277768154567641   0.875000000000000   1.0000000
N2   N   0.055076686336917   0.777084319123064   0.375000000000000   1.0000000
N2   N   0.388712944920597   0.777110415614040   0.375000000000000   1.0000000
N2   N   0.220437514906266   0.275575580543445   0.375000000000000   1.0000000
N2   N   0.723527872196443   0.779724384394751   0.375000000000000   1.0000000
N2   N   0.553508511381960   0.276571264856581   0.375000000000000   1.0000000
N2   N   0.887936772143641   0.277806607740521   0.375000000000000   1.0000000
N2   N   0.055555572193284   0.444433531113044   0.875000000000000   1.0000000
N2   N   0.222226981494284   0.944446188829457   0.875000000000000   1.0000000
N2   N   0.555563123985443   0.944439222063452   0.875000000000000   1.0000000
N2   N   0.388889989788035   0.444432987637469   0.875000000000000   1.0000000
N2   N   0.888890119757195   0.944439004914341   0.875000000000000   1.0000000
N2   N   0.056083147705230   0.944863601877379   0.375000000000000   1.0000000
N2   N   0.722219911569618   0.444432259119124   0.875000000000000   1.0000000
N2   N   0.388321031972607   0.943533516499548   0.375000000000000   1.0000000
N2   N   0.222776734523083   0.442777035324164   0.375000000000000   1.0000000
N2   N   0.222277582837595   0.609684846659842   0.375000000000000   1.0000000
N2   N   0.722378498320642   0.945372276771274   0.375000000000000   1.0000000
N2   N   0.886121511349787   0.443866601410626   0.375000000000000   1.0000000
N2   N   0.055553511657600   0.611098199426851   0.875000000000000   1.0000000
N2   N   0.222221780060170   0.111108100780678   0.875000000000000   1.0000000
N2   N   0.722211796292878   0.611096633724082   0.875000000000000   1.0000000
N2   N   0.555562488412617   0.111103921580801   0.875000000000000   1.0000000
N2   N   0.888891237949331   0.111102134273057   0.875000000000000   1.0000000
B2   B   0.110843467514141   0.055627261947133   0.375000000000000   1.0000000
B2   B   0.621029770620702   0.575025134224812   0.375000000000000   1.0000000
B2   B   0.443949073814288   0.053836835402853   0.375000000000000   1.0000000
B2   B   0.943874623634477   0.554805804473406   0.375000000000000   1.0000000
B2   B   0.777761562960284   0.056443765043287   0.375000000000000   1.0000000
B2   B   0.111121623848621   0.722212293409667   0.875000000000000   1.0000000
B2   B   0.444448181388938   0.722254066014471   0.875000000000000   1.0000000
B2   B   0.277712510654419   0.222168998372521   0.875000000000000   1.0000000
B2   B   0.777820004468147   0.722274740448684   0.875000000000000   1.0000000
B2   B   0.611149174455018   0.222172062179431   0.875000000000000   1.0000000
B2   B   0.944427309949347   0.222199661588470   0.875000000000000   1.0000000
B2   B   0.277436281626751   0.721201804367989   0.375000000000000   1.0000000
B2   B   0.108667367789050   0.220628989073849   0.375000000000000   1.0000000
B2   B   0.444054519455233   0.218119829355747   0.375000000000000   1.0000000
B2   B   0.613719933626488   0.727821643418108   0.375000000000000   1.0000000
B2   B   0.944579137134855   0.722161380974593   0.375000000000000   1.0000000
B2   B   0.777237423921381   0.222251370637417   0.375000000000000   1.0000000
B2   B   0.111104513577886   0.888877554082933   0.875000000000000   1.0000000
B2   B   0.444460089080930   0.888886589390621   0.875000000000000   1.0000000
B2   B   0.277695387638507   0.388857595558967   0.875000000000000   1.0000000
B2   B   0.611151379220472   0.388859538434607   0.875000000000000   1.0000000
B2   B   0.777802455279108   0.888935059570204   0.875000000000000   1.0000000
B2   B   0.944455882041918   0.388862504038945   0.875000000000000   1.0000000
B2   B   0.110332137295004   0.388114192007330   0.375000000000000   1.0000000
B2   B   0.277190404546290   0.887674413921993   0.375000000000000   1.0000000
B2   B   0.611578076646321   0.890519787454741   0.375000000000000   1.0000000
B2   B   0.945325535405262   0.890294525304788   0.375000000000000   1.0000000
B2   B   0.775075306725584   0.388069921967733   0.375000000000000   1.0000000
B2   B   0.277741488910275   0.555552409586971   0.875000000000000   1.0000000
B2   B   0.111066318818716   0.055527322241714   0.875000000000000   1.0000000
B2   B   0.611138478868349   0.555587681821288   0.875000000000000   1.0000000
B2   B   0.444458417512161   0.055511315393360   0.875000000000000   1.0000000
B2   B   0.944476540314314   0.555542825154588   0.875000000000000   1.0000000
B2   B   0.110604716108575   0.554585251102845   0.375000000000000   1.0000000
B2   B   0.777793373063365   0.055560399565180   0.875000000000000   1.0000000
B2   B   0.276680371953335   0.053964689482378   0.375000000000000   1.0000000
B2   B   0.446600817359762   0.558187154418850   0.375000000000000   1.0000000
B2   B   0.778291156654654   0.555193414335833   0.375000000000000   1.0000000
B2   B   0.610938381241569   0.055447228967695   0.375000000000000   1.0000000
B2   B   0.444429941224237   0.555591052514923   0.875000000000000   1.0000000
B2   B   0.944025007644780   0.055921999662413   0.375000000000000   1.0000000
B2   B   0.277774271675206   0.722219944158816   0.875000000000000   1.0000000
B2   B   0.111042794053000   0.222184794300404   0.875000000000000   1.0000000
B2   B   0.444439748389136   0.222162266496633   0.875000000000000   1.0000000
B2   B   0.611138218223337   0.722284838607421   0.875000000000000   1.0000000
B2   B   0.944474044339103   0.722234669560282   0.875000000000000   1.0000000
B2   B   0.777806182295913   0.222193057755362   0.875000000000000   1.0000000
B2   B   0.110644622895889   0.721278817536317   0.375000000000000   1.0000000
B2   B   0.444574052760298   0.722681197961714   0.375000000000000   1.0000000
B2   B   0.275512572264320   0.221468901693984   0.375000000000000   1.0000000
B2   B   0.780708219456247   0.726696406706882   0.375000000000000   1.0000000
B2   B   0.610807125039361   0.220668662184458   0.375000000000000   1.0000000
B2   B   0.943583201811482   0.222244920308602   0.375000000000000   1.0000000
B2   B   0.111064429946384   0.388862389045885   0.875000000000000   1.0000000
B2   B   0.277780763950971   0.888867394794868   0.875000000000000   1.0000000
B2   B   0.611134351171467   0.888921937655497   0.875000000000000   1.0000000
B2   B   0.444420527757978   0.388857250503011   0.875000000000000   1.0000000
B2   B   0.944454000469377   0.888911565777656   0.875000000000000   1.0000000
B2   B   0.110639986628706   0.888275499954145   0.375000000000000   1.0000000
B2   B   0.777826722138399   0.388857554772583   0.875000000000000   1.0000000
B2   B   0.444186569341750   0.888337610729580   0.375000000000000   1.0000000
B2   B   0.275358325891932   0.384814424558320   0.375000000000000   1.0000000
B2   B   0.277661440990761   0.554333010462014   0.375000000000000   1.0000000
B2   B   0.606395729887356   0.383806058543317   0.375000000000000   1.0000000
B2   B   0.778945420126885   0.891364762589899   0.375000000000000   1.0000000
B2   B   0.943067132669039   0.388517370599249   0.375000000000000   1.0000000
B2   B   0.111103887451610   0.555540273419758   0.875000000000000   1.0000000
B2   B   0.277752106748341   0.055508983817829   0.875000000000000   1.0000000
B2   B   0.777830966420461   0.555561042817113   0.875000000000000   1.0000000
B2   B   0.611138951827628   0.055536273896508   0.875000000000000   1.0000000
B2   B   0.944425735322592   0.055554952303104   0.875000000000000   1.0000000
B2   B   0.055489196751860   0.111087307127330   0.124847071414382   1.0000000
B2   B   0.555552822587400   0.611312756004705   0.125638156990903   1.0000000
B2   B   0.388808009012224   0.110878675174870   0.125224196408141   1.0000000
B2   B   0.889140858427842   0.611233287068989   0.124914312469122   1.0000000
B2   B   0.722239353167512   0.111118416294247   0.124676519015253   1.0000000
B2   B   0.055666988901880   0.777811432127296   0.625250665163413   1.0000000
B2   B   0.388826259544252   0.777854743886268   0.625162808000186   1.0000000
B2   B   0.222020481926230   0.277746582780423   0.624850430590837   1.0000000
B2   B   0.722340308580054   0.777979043438727   0.625065985843528   1.0000000
B2   B   0.555616206159321   0.277641884667266   0.624496544987288   1.0000000
B2   B   0.888925934347488   0.277822027608679   0.625283675101056   1.0000000
B2   B   0.222210287026484   0.777781122400722   0.124816467336765   1.0000000
B2   B   0.055478875334387   0.277816685375917   0.124833712048059   1.0000000
B2   B   0.388793315923706   0.277664060884721   0.125227681362995   1.0000000
B2   B   0.555524116417943   0.777944758279700   0.124862883790338   1.0000000
B2   B   0.889090890024104   0.777913885561547   0.124809404746748   1.0000000
B2   B   0.722320640492054   0.277753652368599   0.124911469857628   1.0000000
B2   B   0.055580762999812   0.944420984720399   0.625208921212529   1.0000000
B2   B   0.388836440670260   0.944355691668062   0.625164178895732   1.0000000
B2   B   0.222070291235828   0.444523320224598   0.624923129093613   1.0000000
B2   B   0.555582535637907   0.444424445911074   0.623953068435563   1.0000000
B2   B   0.722246947030810   0.944546212812370   0.625345544396924   1.0000000
B2   B   0.889038797105169   0.444513932329129   0.625177935168699   1.0000000
B2   B   0.055551022723477   0.444521109230778   0.124814410848143   1.0000000
B2   B   0.222172080080113   0.944309602514984   0.124927225224744   1.0000000
B2   B   0.555519482879014   0.944465929552643   0.124680278829839   1.0000000
B2   B   0.388738940095969   0.444501069819403   0.125313898073548   1.0000000
B2   B   0.888956210585366   0.944527545590718   0.124674453987739   1.0000000
B2   B   0.722435423186265   0.444488181589091   0.125444451327893   1.0000000
B2   B   0.222162042007674   0.611207703480246   0.625073617518141   1.0000000
B2   B   0.055489196751860   0.111087307127330   0.625152928585617   1.0000000
B2   B   0.555552822587400   0.611312756004705   0.624361843009096   1.0000000
B2   B   0.388808009012224   0.110878675174870   0.624775803591860   1.0000000
B2   B   0.889140858427842   0.611233287068989   0.625085687530877   1.0000000
B2   B   0.055650391233684   0.611190221859077   0.124763690257844   1.0000000
B2   B   0.722239353167512   0.111118416294247   0.625323480984748   1.0000000
B2   B   0.222079945779821   0.110930424872830   0.125167967555098   1.0000000
B2   B   0.388781861062216   0.611280108872086   0.125157310821475   1.0000000
B2   B   0.722483750584807   0.611289451310868   0.125586816453968   1.0000000
B2   B   0.555544982043795   0.110993640724215   0.124867444348659   1.0000000
B2   B   0.388781861062216   0.611280108872086   0.624842689178525   1.0000000
B2   B   0.888889563151993   0.111154461768690   0.124700272234454   1.0000000
B2   B   0.222210287026484   0.777781122400722   0.625183532663235   1.0000000
B2   B   0.055478875334387   0.277816685375917   0.625166287951941   1.0000000
B2   B   0.388793315923706   0.277664060884721   0.624772318637005   1.0000000
B2   B   0.555524116417943   0.777944758279700   0.625137116209661   1.0000000
B2   B   0.889090890024104   0.777913885561547   0.625190595253252   1.0000000
B2   B   0.722320640492054   0.277753652368599   0.625088530142372   1.0000000
B2   B   0.055666988901880   0.777811432127296   0.124749334836585   1.0000000
B2   B   0.388826259544252   0.777854743886268   0.124837191999814   1.0000000
B2   B   0.222020481926230   0.277746582780423   0.125149569409162   1.0000000
B2   B   0.722340308580054   0.777979043438727   0.124934014156472   1.0000000
B2   B   0.555616206159321   0.277641884667266   0.125503455012711   1.0000000
B2   B   0.888925934347488   0.277822027608679   0.124716324898946   1.0000000
B2   B   0.055551022723477   0.444521109230778   0.625185589151856   1.0000000
B2   B   0.222172080080113   0.944309602514984   0.625072774775256   1.0000000
B2   B   0.555519482879014   0.944465929552643   0.625319721170160   1.0000000
B2   B   0.388738940095969   0.444501069819403   0.624686101926452   1.0000000
B2   B   0.888956210585366   0.944527545590718   0.625325546012261   1.0000000
B2   B   0.055580762999812   0.944420984720399   0.124791078787471   1.0000000
B2   B   0.722435423186265   0.444488181589091   0.624555548672107   1.0000000
B2   B   0.388836440670260   0.944355691668062   0.124835821104269   1.0000000
B2   B   0.222070291235828   0.444523320224598   0.125076870906387   1.0000000
B2   B   0.222162042007674   0.611207703480246   0.124926382481858   1.0000000
B2   B   0.555582535637907   0.444424445911074   0.126046931564437   1.0000000
B2   B   0.722246947030810   0.944546212812370   0.124654455603076   1.0000000
B2   B   0.889038797105169   0.444513932329129   0.124822064831301   1.0000000
B2   B   0.055650391233684   0.611190221859077   0.625236309742158   1.0000000
B2   B   0.222079945779821   0.110930424872830   0.624832032444902   1.0000000
B2   B   0.722483750584807   0.611289451310868   0.624413183546031   1.0000000
B2   B   0.555544982043795   0.110993640724215   0.625132555651341   1.0000000
B2   B   0.888889563151993   0.111154461768690   0.625299727765547   1.0000000


