data_1
_audit_creation_method   'vasp2cif'
_cell_length_a    14.93631414619966
_cell_length_b    14.936314146199727
_cell_length_c    13.341276283792837
_cell_angle_alpha    90.0
_cell_angle_beta    90.0
_cell_angle_gamma    119.99999999999984

_symmetry_space_group_name_H-M    'P 1'
loop_
_atom_site_label
_atom_site_type_symbol
_atom_site_fract_x
_atom_site_fract_y
_atom_site_fract_z
_atom_site_occupancy
Pb2   Pb   0.501412244679154   0.417372789006241   0.375000000000000   1.0000000
N2   N   0.111064949863764   0.055532293246164   0.125012093832246   1.0000000
N2   N   0.611264149398406   0.555806129626954   0.121497644984572   1.0000000
N2   N   0.444475966757069   0.055572755733533   0.124986636349325   1.0000000
N2   N   0.944428323889254   0.555535218170898   0.124934419605422   1.0000000
N2   N   0.777801127939704   0.055567230636520   0.124820365577964   1.0000000
N2   N   0.111104627137147   0.722218980235238   0.625109053884894   1.0000000
N2   N   0.444475966757069   0.722236544356874   0.625013363650675   1.0000000
N2   N   0.277646685827265   0.222146429200147   0.626055930072947   1.0000000
N2   N   0.777801679995320   0.722295630700661   0.625560869881695   1.0000000
N2   N   0.611158132478075   0.222180859941625   0.625661728978121   1.0000000
N2   N   0.944427728667787   0.222203345164818   0.625091249002524   1.0000000
N2   N   0.277792925031867   0.722224873443585   0.124948373336561   1.0000000
N2   N   0.111033461655392   0.222183397494360   0.124906400126962   1.0000000
N2   N   0.444479857321093   0.222254230271649   0.123902166213803   1.0000000
N2   N   0.611158132478075   0.722310605869778   0.124338271021879   1.0000000
N2   N   0.944428323889254   0.722226439051691   0.124934419605422   1.0000000
N2   N   0.777805636164853   0.222187905219708   0.124853152534564   1.0000000
N2   N   0.111105952644042   0.888895383102446   0.625056491590504   1.0000000
N2   N   0.444472669007638   0.888903001170484   0.625085813990650   1.0000000
N2   N   0.277646685827265   0.388833589960448   0.626055930072947   1.0000000
N2   N   0.611264149398406   0.388791353104780   0.628502355015428   1.0000000
N2   N   0.777805636164853   0.888951064278474   0.625146847465437   1.0000000
N2   N   0.944437691888091   0.388864934693101   0.625009866508681   1.0000000
N2   N   0.111064949863764   0.388865989950928   0.125012093832246   1.0000000
N2   N   0.277792925031867   0.888901384921611   0.124948373336561   1.0000000
N2   N   0.611144499328675   0.888928132670414   0.124901429222781   1.0000000
N2   N   0.444050684670707   0.388692009002018   0.120580364239715   1.0000000
N2   N   0.944437691888091   0.888906090528319   0.124990133491319   1.0000000
N2   N   0.777801679995320   0.388839382627988   0.124439130118306   1.0000000
N2   N   0.277790202830732   0.555548774249291   0.625027606115512   1.0000000
N2   N   0.111064949863764   0.055532293246164   0.624987906167754   1.0000000
N2   N   0.611264149398406   0.555806129626954   0.628502355015428   1.0000000
N2   N   0.444475966757069   0.055572755733533   0.625013363650675   1.0000000
N2   N   0.944428323889254   0.555535218170898   0.625065580394578   1.0000000
N2   N   0.111105952644042   0.555543902874923   0.124943508409496   1.0000000
N2   N   0.777801127939704   0.055567230636520   0.625179634422036   1.0000000
N2   N   0.277790202830732   0.055574761914777   0.124972393884489   1.0000000
N2   N   0.444479857321093   0.555558960382780   0.123902166213803   1.0000000
N2   N   0.777778729997526   0.555556031665430   0.124112042699523   1.0000000
N2   N   0.611144499328675   0.055549699991590   0.124901429222781   1.0000000
N2   N   0.444479857321093   0.555558960382780   0.626097833786198   1.0000000
N2   N   0.944427728667787   0.055557716836306   0.124908750997476   1.0000000
N2   N   0.277792925031867   0.722224873443585   0.625051626663440   1.0000000
N2   N   0.111033461655392   0.222183397494360   0.625093599873038   1.0000000
N2   N   0.444479857321093   0.222254230271649   0.626097833786198   1.0000000
N2   N   0.611158132478075   0.722310605869778   0.625661728978121   1.0000000
N2   N   0.944428323889254   0.722226439051691   0.625065580394578   1.0000000
N2   N   0.777805636164853   0.222187905219708   0.625146847465437   1.0000000
N2   N   0.111104627137147   0.722218980235238   0.124890946115107   1.0000000
N2   N   0.444475966757069   0.722236544356874   0.124986636349325   1.0000000
N2   N   0.277646685827265   0.222146429200147   0.123944069927053   1.0000000
N2   N   0.777801679995320   0.722295630700661   0.124439130118306   1.0000000
N2   N   0.611158132478075   0.222180859941625   0.124338271021879   1.0000000
N2   N   0.944427728667787   0.222203345164818   0.124908750997476   1.0000000
N2   N   0.111064949863764   0.388865989950928   0.624987906167754   1.0000000
N2   N   0.277792925031867   0.888901384921611   0.625051626663440   1.0000000
N2   N   0.611144499328675   0.888928132670414   0.625098570777219   1.0000000
N2   N   0.444050684670707   0.388692009002018   0.629419635760285   1.0000000
N2   N   0.944437691888091   0.888906090528319   0.625009866508681   1.0000000
N2   N   0.111105952644042   0.888895383102446   0.124943508409496   1.0000000
N2   N   0.777801679995320   0.388839382627988   0.625560869881695   1.0000000
N2   N   0.444472669007638   0.888903001170484   0.124914186009350   1.0000000
N2   N   0.277646685827265   0.388833589960448   0.123944069927053   1.0000000
N2   N   0.277790202830732   0.555548774249291   0.124972393884489   1.0000000
N2   N   0.611264149398406   0.388791353104780   0.121497644984572   1.0000000
N2   N   0.777805636164853   0.888951064278474   0.124853152534564   1.0000000
N2   N   0.944437691888091   0.388864934693101   0.124990133491319   1.0000000
N2   N   0.111105952644042   0.555543902874923   0.625056491590504   1.0000000
N2   N   0.277790202830732   0.055574761914777   0.625027606115512   1.0000000
N2   N   0.777778729997526   0.555556031665430   0.625887957300477   1.0000000
N2   N   0.611144499328675   0.055549699991590   0.625098570777219   1.0000000
N2   N   0.944427728667787   0.055557716836306   0.625091249002524   1.0000000
N2   N   0.056883168790103   0.111915176750188   0.375000000000000   1.0000000
N2   N   0.554003694303682   0.622076943545479   0.375000000000000   1.0000000
N2   N   0.385657239441565   0.101563461462186   0.375000000000000   1.0000000
N2   N   0.886104691197335   0.609719012265337   0.375000000000000   1.0000000
N2   N   0.722952120926992   0.110337376360141   0.375000000000000   1.0000000
N2   N   0.055589839686000   0.777793613101002   0.875000000000000   1.0000000
N2   N   0.388904082435774   0.777792838037764   0.875000000000000   1.0000000
N2   N   0.222255440820277   0.277794387076806   0.875000000000000   1.0000000
N2   N   0.722244120273662   0.777780840691010   0.875000000000000   1.0000000
N2   N   0.555564194569894   0.277772357423210   0.875000000000000   1.0000000
N2   N   0.888914999424920   0.277797327613886   0.875000000000000   1.0000000
N2   N   0.218835174252599   0.776084253792968   0.375000000000000   1.0000000
N2   N   0.056883168790103   0.278301325373251   0.375000000000000   1.0000000
N2   N   0.385330807003133   0.261968805068679   0.375000000000000   1.0000000
N2   N   0.554513624034616   0.782533465911664   0.375000000000000   1.0000000
N2   N   0.888442093129954   0.778462879274100   0.375000000000000   1.0000000
N2   N   0.722848148946437   0.275206660930130   0.375000000000000   1.0000000
N2   N   0.055579761251810   0.944450970077758   0.875000000000000   1.0000000
N2   N   0.388904082435774   0.944444577731347   0.875000000000000   1.0000000
N2   N   0.222243916295289   0.444466765465693   0.875000000000000   1.0000000
N2   N   0.555583792987097   0.444458563160213   0.875000000000000   1.0000000
N2   N   0.722241122317748   0.944450787480388   0.875000000000000   1.0000000
N2   N   0.888924348051702   0.444468004980327   0.875000000000000   1.0000000
N2   N   0.054328777402897   0.444280128736898   0.375000000000000   1.0000000
N2   N   0.218938447424820   0.940772334645536   0.375000000000000   1.0000000
N2   N   0.554626470269775   0.943979901801552   0.375000000000000   1.0000000
N2   N   0.385330807003133   0.456695335267791   0.375000000000000   1.0000000
N2   N   0.889795191522316   0.945834436591842   0.375000000000000   1.0000000
N2   N   0.722808702482780   0.442220914297061   0.375000000000000   1.0000000
N2   N   0.222238838520060   0.611128427307588   0.875000000000000   1.0000000
N2   N   0.055584054432287   0.111121973189323   0.875000000000000   1.0000000
N2   N   0.555564194569894   0.611125170480021   0.875000000000000   1.0000000
N2   N   0.388900123950145   0.111097956483121   0.875000000000000   1.0000000
N2   N   0.888945036031801   0.611139184682572   0.875000000000000   1.0000000
N2   N   0.052601734090628   0.610022883057039   0.375000000000000   1.0000000
N2   N   0.722241122317748   0.111123668170695   0.875000000000000   1.0000000
N2   N   0.220270559415899   0.107558843573055   0.375000000000000   1.0000000
N2   N   0.385657239441565   0.617427111312721   0.375000000000000   1.0000000
N2   N   0.722808702482780   0.613921121519056   0.375000000000000   1.0000000
N2   N   0.554513624034616   0.105313491456285   0.375000000000000   1.0000000
N2   N   0.388900123950145   0.611135500800368   0.875000000000000   1.0000000
N2   N   0.890254969501301   0.111794151417323   0.375000000000000   1.0000000
N2   N   0.222243128490845   0.777788230912091   0.875000000000000   1.0000000
N2   N   0.055584054432287   0.277795414576300   0.875000000000000   1.0000000
N2   N   0.388911366422524   0.277763642110078   0.875000000000000   1.0000000
N2   N   0.555568302200110   0.777787347173937   0.875000000000000   1.0000000
N2   N   0.888924348051702   0.777789676404711   0.875000000000000   1.0000000
N2   N   0.722244120273662   0.277796612915987   0.875000000000000   1.0000000
N2   N   0.052601734090628   0.775912184366924   0.375000000000000   1.0000000
N2   N   0.386126627648300   0.778860309184361   0.375000000000000   1.0000000
N2   N   0.224979996591205   0.279156664962270   0.375000000000000   1.0000000
N2   N   0.722848148946437   0.780974821349641   0.375000000000000   1.0000000
N2   N   0.554003694303682   0.265260084091538   0.375000000000000   1.0000000
N2   N   0.889795191522316   0.277294088263809   0.375000000000000   1.0000000
N2   N   0.055579761251810   0.444462124507380   0.875000000000000   1.0000000
N2   N   0.222238838520060   0.944443744545809   0.875000000000000   1.0000000
N2   N   0.555570859594750   0.944452096464038   0.875000000000000   1.0000000
N2   N   0.388911366422524   0.444481057645781   0.875000000000000   1.0000000
N2   N   0.888914999424920   0.944451005144371   0.875000000000000   1.0000000
N2   N   0.054328777402897   0.943381981999327   0.375000000000000   1.0000000
N2   N   0.722271418217972   0.444477248871829   0.875000000000000   1.0000000
N2   N   0.386126627648300   0.940599651797276   0.375000000000000   1.0000000
N2   N   0.220270559415899   0.446045049176180   0.375000000000000   1.0000000
N2   N   0.218938447424820   0.611499446112622   0.375000000000000   1.0000000
N2   N   0.722952120926992   0.945948077900187   0.375000000000000   1.0000000
N2   N   0.888442093129954   0.443312547189191   0.375000000000000   1.0000000
N2   N   0.055589839686000   0.611129559918334   0.875000000000000   1.0000000
N2   N   0.222243916295289   0.111110484162932   0.875000000000000   1.0000000
N2   N   0.722271418217972   0.611127502679479   0.875000000000000   1.0000000
N2   N   0.555568302200110   0.111114288359509   0.875000000000000   1.0000000
N2   N   0.888914827242324   0.111124080287833   0.875000000000000   1.0000000
B2   B   0.110552438461663   0.054419358617521   0.375000000000000   1.0000000
B2   B   0.614297678628010   0.573165678133066   0.375000000000000   1.0000000
B2   B   0.443002894037007   0.050001225754808   0.375000000000000   1.0000000
B2   B   0.941834177897734   0.554366550401722   0.375000000000000   1.0000000
B2   B   0.779261965178595   0.056297649255965   0.375000000000000   1.0000000
B2   B   0.111130718533627   0.722232025933478   0.875000000000000   1.0000000
B2   B   0.444455043776068   0.722190719431706   0.875000000000000   1.0000000
B2   B   0.277888927307352   0.222289715615391   0.875000000000000   1.0000000
B2   B   0.777752762960435   0.722149781435190   0.875000000000000   1.0000000
B2   B   0.611089847973231   0.222285443760978   0.875000000000000   1.0000000
B2   B   0.944491973234407   0.222255475127538   0.875000000000000   1.0000000
B2   B   0.275041640468016   0.721978199582665   0.375000000000000   1.0000000
B2   B   0.114165467203391   0.223749400268360   0.375000000000000   1.0000000
B2   B   0.441315825959893   0.210714060845038   0.375000000000000   1.0000000
B2   B   0.611322175617680   0.729776614191878   0.375000000000000   1.0000000
B2   B   0.941834177897734   0.720800960829348   0.375000000000000   1.0000000
B2   B   0.778906896240896   0.221137132110047   0.375000000000000   1.0000000
B2   B   0.111143738977914   0.888907260478161   0.875000000000000   1.0000000
B2   B   0.444453493061567   0.888893413197448   0.875000000000000   1.0000000
B2   B   0.277888927307352   0.388932545025289   0.875000000000000   1.0000000
B2   B   0.611076255697914   0.388942674123333   0.875000000000000   1.0000000
B2   B   0.777778190862389   0.888846977040854   0.875000000000000   1.0000000
B2   B   0.944464134297650   0.388921232124382   0.875000000000000   1.0000000
B2   B   0.110552438461663   0.389466413177470   0.375000000000000   1.0000000
B2   B   0.275041640468016   0.886396774218679   0.375000000000000   1.0000000
B2   B   0.611605710385730   0.891463607719380   0.375000000000000   1.0000000
B2   B   0.944068847811962   0.889217848263201   0.375000000000000   1.0000000
B2   B   0.778136544980158   0.386825197818830   0.375000000000000   1.0000000
B2   B   0.277829816577299   0.555558502864901   0.875000000000000   1.0000000
B2   B   0.111180920883867   0.055593875600311   0.875000000000000   1.0000000
B2   B   0.611076255697914   0.555466914907909   0.875000000000000   1.0000000
B2   B   0.444455043776068   0.055597657677697   0.875000000000000   1.0000000
B2   B   0.944450490810354   0.555573153784371   0.875000000000000   1.0000000
B2   B   0.108493625379267   0.555123367754220   0.375000000000000   1.0000000
B2   B   0.777791476538862   0.055562404936099   0.875000000000000   1.0000000
B2   B   0.275162125437386   0.051300537544302   0.375000000000000   1.0000000
B2   B   0.441315825959893   0.563935098448191   0.375000000000000   1.0000000
B2   B   0.774555141614939   0.553944237474138   0.375000000000000   1.0000000
B2   B   0.611605710385730   0.053475435999679   0.375000000000000   1.0000000
B2   B   0.444480945328298   0.555523287183407   0.875000000000000   1.0000000
B2   B   0.946165537407506   0.056843168796160   0.375000000000000   1.0000000
B2   B   0.277801196872026   0.722222754489164   0.875000000000000   1.0000000
B2   B   0.111210984067320   0.222272158700324   0.875000000000000   1.0000000
B2   B   0.444480945328298   0.222290991478226   0.875000000000000   1.0000000
B2   B   0.611089847973231   0.722137737545582   0.875000000000000   1.0000000
B2   B   0.944450490810354   0.722210670359317   0.875000000000000   1.0000000
B2   B   0.777778190862389   0.222264547154863   0.875000000000000   1.0000000
B2   B   0.108058324669345   0.720695829001337   0.375000000000000   1.0000000
B2   B   0.443002894037007   0.726335001615535   0.375000000000000   1.0000000
B2   B   0.278577098847447   0.219653213132036   0.375000000000000   1.0000000
B2   B   0.778136544980158   0.724644680494657   0.375000000000000   1.0000000
B2   B   0.611322175617680   0.214878894759132   0.375000000000000   1.0000000
B2   B   0.946165537407506   0.222655701944682   0.375000000000000   1.0000000
B2   B   0.111180920883867   0.388920378616884   0.875000000000000   1.0000000
B2   B   0.277801196872026   0.888911775716190   0.875000000000000   1.0000000
B2   B   0.611109567282499   0.888862022281286   0.875000000000000   1.0000000
B2   B   0.444539764671913   0.388936549002621   0.875000000000000   1.0000000
B2   B   0.944464134297650   0.888876235506597   0.875000000000000   1.0000000
B2   B   0.108493625379267   0.886703590958377   0.375000000000000   1.0000000
B2   B   0.777752762960435   0.388936314858574   0.875000000000000   1.0000000
B2   B   0.443133507545980   0.888233420439654   0.375000000000000   1.0000000
B2   B   0.278577098847447   0.392257219048738   0.375000000000000   1.0000000
B2   B   0.275162125437386   0.557194921226420   0.375000000000000   1.0000000
B2   B   0.614297678628010   0.374465333828272   0.375000000000000   1.0000000
B2   B   0.778906896240896   0.891103097464178   0.375000000000000   1.0000000
B2   B   0.944068847811962   0.388184332882089   0.375000000000000   1.0000000
B2   B   0.111143738977914   0.555569811833080   0.875000000000000   1.0000000
B2   B   0.277829816577299   0.055604647045733   0.875000000000000   1.0000000
B2   B   0.777750128973127   0.555541731153231   0.875000000000000   1.0000000
B2   B   0.611109567282499   0.055580878334542   0.875000000000000   1.0000000
B2   B   0.944491973234407   0.055569831440204   0.875000000000000   1.0000000
B2   B   0.055595309922905   0.111160517391665   0.125161313165583   1.0000000
B2   B   0.555632543243661   0.610949869840983   0.123675437453981   1.0000000
B2   B   0.389006406957688   0.111368390619861   0.125070862609040   1.0000000
B2   B   0.888663644343835   0.610998488838590   0.124945682365511   1.0000000
B2   B   0.722234830099261   0.111120948360841   0.125001581144494   1.0000000
B2   B   0.055501926888466   0.777777106435905   0.624948342152711   1.0000000
B2   B   0.388953279592274   0.777745418138863   0.624881027309356   1.0000000
B2   B   0.222294344529570   0.277813838931453   0.625317538544376   1.0000000
B2   B   0.722169382507413   0.777732747735426   0.625264635139036   1.0000000
B2   B   0.555632543243661   0.278016006736013   0.626324562546020   1.0000000
B2   B   0.888878518464583   0.277751019832719   0.624941271358742   1.0000000
B2   B   0.222249325663426   0.777791329498380   0.125024873288189   1.0000000
B2   B   0.055595309922905   0.277768125864576   0.125161313165583   1.0000000
B2   B   0.388902509859377   0.277943064990067   0.123392379195818   1.0000000
B2   B   0.555594096731821   0.777720530822893   0.124997210764624   1.0000000
B2   B   0.888786131061589   0.777741216597681   0.124985168867169   1.0000000
B2   B   0.722169382507413   0.277769968105322   0.124735364860965   1.0000000
B2   B   0.055562970841907   0.944501152562293   0.624835919251420   1.0000000
B2   B   0.388953279592274   0.944541194786746   0.624881027309356   1.0000000
B2   B   0.222291661747236   0.444372063530340   0.624945260041515   1.0000000
B2   B   0.555442041797136   0.444387687565232   0.624513331349576   1.0000000
B2   B   0.722234830099261   0.944447215071758   0.624998418855505   1.0000000
B2   B   0.888786131061589   0.444378247797243   0.625014831132831   1.0000000
B2   B   0.055562970841907   0.444395151612943   0.125164080748580   1.0000000
B2   B   0.222285005545817   0.944573446163350   0.125150249614397   1.0000000
B2   B   0.555594891490090   0.944464112411708   0.125057210866204   1.0000000
B2   B   0.388902509859377   0.444292778202646   0.123392379195818   1.0000000
B2   B   0.888878518464583   0.944460831965198   0.125058728641257   1.0000000
B2   B   0.721922231830444   0.444298079332511   0.123642468598400   1.0000000
B2   B   0.222285005545817   0.611044892715804   0.624849750385603   1.0000000
B2   B   0.055595309922905   0.111160517391665   0.624838686834418   1.0000000
B2   B   0.555632543243661   0.610949869840983   0.626324562546020   1.0000000
B2   B   0.389006406957688   0.111368390619861   0.624929137390961   1.0000000
B2   B   0.888663644343835   0.610998488838590   0.625054317634489   1.0000000
B2   B   0.055501926888466   0.611058153785897   0.125051657847289   1.0000000
B2   B   0.722234830099261   0.111120948360841   0.624998418855505   1.0000000
B2   B   0.222291661747236   0.111252931550231   0.125054739958484   1.0000000
B2   B   0.389006406957688   0.610971349671170   0.125070862609040   1.0000000
B2   B   0.721922231830444   0.610957485831268   0.123642468598400   1.0000000
B2   B   0.555594096731821   0.111206899242263   0.124997210764624   1.0000000
B2   B   0.389006406957688   0.610971349671170   0.624929137390961   1.0000000
B2   B   0.888907042353932   0.111120187843638   0.125012052662968   1.0000000
B2   B   0.222249325663426   0.777791329498380   0.624975126711811   1.0000000
B2   B   0.055595309922905   0.277768125864576   0.624838686834418   1.0000000
B2   B   0.388902509859377   0.277943064990067   0.626607620804182   1.0000000
B2   B   0.555594096731821   0.777720530822893   0.625002789235376   1.0000000
B2   B   0.888786131061589   0.777741216597681   0.625014831132831   1.0000000
B2   B   0.722169382507413   0.277769968105322   0.625264635139036   1.0000000
B2   B   0.055501926888466   0.777777106435905   0.125051657847289   1.0000000
B2   B   0.388953279592274   0.777745418138863   0.125118972690644   1.0000000
B2   B   0.222294344529570   0.277813838931453   0.124682461455623   1.0000000
B2   B   0.722169382507413   0.777732747735426   0.124735364860965   1.0000000
B2   B   0.555632543243661   0.278016006736013   0.123675437453981   1.0000000
B2   B   0.888878518464583   0.277751019832719   0.125058728641257   1.0000000
B2   B   0.055562970841907   0.444395151612943   0.624835919251420   1.0000000
B2   B   0.222285005545817   0.944573446163350   0.624849750385603   1.0000000
B2   B   0.555594891490090   0.944464112411708   0.624942789133795   1.0000000
B2   B   0.388902509859377   0.444292778202646   0.626607620804182   1.0000000
B2   B   0.888878518464583   0.944460831965198   0.624941271358742   1.0000000
B2   B   0.055562970841907   0.944501152562293   0.125164080748580   1.0000000
B2   B   0.721922231830444   0.444298079332511   0.626357531401601   1.0000000
B2   B   0.388953279592274   0.944541194786746   0.125118972690644   1.0000000
B2   B   0.222291661747236   0.444372063530340   0.125054739958484   1.0000000
B2   B   0.222285005545817   0.611044892715804   0.125150249614397   1.0000000
B2   B   0.555442041797136   0.444387687565232   0.125486668650423   1.0000000
B2   B   0.722234830099261   0.944447215071758   0.125001581144494   1.0000000
B2   B   0.888786131061589   0.444378247797243   0.124985168867169   1.0000000
B2   B   0.055501926888466   0.611058153785897   0.624948342152711   1.0000000
B2   B   0.222291661747236   0.111252931550231   0.624945260041515   1.0000000
B2   B   0.721922231830444   0.610957485831268   0.626357531401601   1.0000000
B2   B   0.555594096731821   0.111206899242263   0.625002789235376   1.0000000
B2   B   0.888907042353932   0.111120187843638   0.624987947337032   1.0000000


