data_1
_audit_creation_method   'vasp2cif'
_cell_length_a    14.93631414619966
_cell_length_b    14.936314146199727
_cell_length_c    13.341276283792837
_cell_angle_alpha    90.0
_cell_angle_beta    90.0
_cell_angle_gamma    119.99999999999984

_symmetry_space_group_name_H-M    'P 1'
loop_
_atom_site_label
_atom_site_type_symbol
_atom_site_fract_x
_atom_site_fract_y
_atom_site_fract_z
_atom_site_occupancy
In2   In   0.555555555555557   0.444444444444443   0.375000000000000   1.0000000
N2   N   0.111077589507687   0.055539160400270   0.125027678661440   1.0000000
N2   N   0.611197465804243   0.555728264942014   0.123508739860755   1.0000000
N2   N   0.444442929563754   0.055555707671882   0.124830640948008   1.0000000
N2   N   0.944444292328098   0.555557070436309   0.124830640948008   1.0000000
N2   N   0.777795096238130   0.055564214785652   0.125281123028996   1.0000000
N2   N   0.111110997663089   0.722222165498279   0.624838369683639   1.0000000
N2   N   0.444442929563754   0.722220555224908   0.625169359051967   1.0000000
N2   N   0.277687145613428   0.222159453160702   0.625943358563006   1.0000000
N2   N   0.777840546839057   0.722312854386528   0.625943358563006   1.0000000
N2   N   0.611138974213969   0.222159453160702   0.625943358563006   1.0000000
N2   N   0.944435785214592   0.222204903762106   0.624718876971028   1.0000000
N2   N   0.277777834501834   0.722222165498279   0.125161630316288   1.0000000
N2   N   0.111061230110114   0.222197281721782   0.124867418461879   1.0000000
N2   N   0.444461975231466   0.222257283796246   0.124077105300055   1.0000000
N2   N   0.611138974213969   0.722312854386528   0.124056641436987   1.0000000
N2   N   0.944444292328098   0.722220555224908   0.124830640948008   1.0000000
N2   N   0.777802718278124   0.222197281721782   0.124867418461879   1.0000000
N2   N   0.111109157671215   0.888890842329197   0.624733691150430   1.0000000
N2   N   0.444448351324365   0.888890842329197   0.624733691150430   1.0000000
N2   N   0.277687145613428   0.388861025786097   0.625943358563008   1.0000000
N2   N   0.611197465804243   0.388802534195657   0.626491260139343   1.0000000
N2   N   0.777802718278124   0.888938769890081   0.625132581537848   1.0000000
N2   N   0.944460839599763   0.388871762440762   0.624972321338771   1.0000000
N2   N   0.111077589507687   0.388871762440762   0.125027678661435   1.0000000
N2   N   0.277777834501834   0.888889002337003   0.125161630316288   1.0000000
N2   N   0.611128237559259   0.888922410492259   0.125027678661440   1.0000000
N2   N   0.444271735058182   0.388802534195657   0.123508739860773   1.0000000
N2   N   0.944460839599763   0.888922410492259   0.125027678661392   1.0000000
N2   N   0.777840546839057   0.388861025786097   0.124056641436987   1.0000000
N2   N   0.277779444774882   0.555557070436302   0.625169359051967   1.0000000
N2   N   0.111077589507687   0.055539160400268   0.624972321338771   1.0000000
N2   N   0.611197465804243   0.555728264942014   0.626491260139343   1.0000000
N2   N   0.444442929563754   0.055555707671882   0.625169359051967   1.0000000
N2   N   0.944444292328098   0.555557070436309   0.625169359051967   1.0000000
N2   N   0.111109157671215   0.555551648675962   0.125266308849580   1.0000000
N2   N   0.777795096238130   0.055564214785652   0.624718876971028   1.0000000
N2   N   0.277779444774882   0.055555707671882   0.124830640948007   1.0000000
N2   N   0.444461975231466   0.555538024768714   0.124077105300055   1.0000000
N2   N   0.777742716203725   0.555538024768714   0.124077105300055   1.0000000
N2   N   0.611128237559259   0.055539160400251   0.125027678661440   1.0000000
N2   N   0.444461975231466   0.555538024768714   0.625922894699750   1.0000000
N2   N   0.944435785214606   0.055564214785652   0.125281123028996   1.0000000
N2   N   0.277777834501834   0.722222165498279   0.624838369683639   1.0000000
N2   N   0.111061230110114   0.222197281721782   0.625132581537848   1.0000000
N2   N   0.444461975231466   0.222257283796246   0.625922894699750   1.0000000
N2   N   0.611138974213969   0.722312854386528   0.625943358563006   1.0000000
N2   N   0.944444292328098   0.722220555224908   0.625169359051967   1.0000000
N2   N   0.777802718278124   0.222197281721782   0.625132581537848   1.0000000
N2   N   0.111110997663089   0.722222165498279   0.125161630316288   1.0000000
N2   N   0.444442929563754   0.722220555224908   0.124830640948007   1.0000000
N2   N   0.277687145613428   0.222159453160702   0.124056641436987   1.0000000
N2   N   0.777840546839057   0.722312854386542   0.124056641436987   1.0000000
N2   N   0.611138974213969   0.222159453160702   0.124056641436987   1.0000000
N2   N   0.944435785214592   0.222204903762106   0.125281123028996   1.0000000
N2   N   0.111077589507687   0.388871762440763   0.624972321338771   1.0000000
N2   N   0.277777834501834   0.888889002337003   0.624838369683639   1.0000000
N2   N   0.611128237559259   0.888922410492259   0.624972321338771   1.0000000
N2   N   0.444271735058178   0.388802534195657   0.626491260139343   1.0000000
N2   N   0.944460839599763   0.888922410492259   0.624972321338771   1.0000000
N2   N   0.111109157671215   0.888890842329197   0.125266308849580   1.0000000
N2   N   0.777840546839057   0.388861025786097   0.625943358563006   1.0000000
N2   N   0.444448351324365   0.888890842329197   0.125266308849583   1.0000000
N2   N   0.277687145613428   0.388861025786097   0.124056641436987   1.0000000
N2   N   0.277779444774882   0.555557070436309   0.124830640948007   1.0000000
N2   N   0.611197465804243   0.388802534195657   0.123508739860778   1.0000000
N2   N   0.777802718278124   0.888938769890081   0.124867418461879   1.0000000
N2   N   0.944460839599763   0.388871762440763   0.125027678661435   1.0000000
N2   N   0.111109157671215   0.555551648675962   0.624733691150430   1.0000000
N2   N   0.277779444774882   0.055555707671882   0.625169359051967   1.0000000
N2   N   0.777742716203725   0.555538024768714   0.625922894699750   1.0000000
N2   N   0.611128237559259   0.055539160400261   0.624972321338771   1.0000000
N2   N   0.944435785214606   0.055564214785652   0.624718876971028   1.0000000
N2   N   0.053992633284970   0.110054576539075   0.375000000000000   1.0000000
N2   N   0.556040328303668   0.623741309671084   0.375000000000000   1.0000000
N2   N   0.387269722363021   0.107872778059133   0.375000000000000   1.0000000
N2   N   0.892127221940670   0.612730277637332   0.375000000000000   1.0000000
N2   N   0.722728609920875   0.110054576539075   0.375000000000000   1.0000000
N2   N   0.055559982061778   0.777782556238460   0.875000000000000   1.0000000
N2   N   0.388889240843393   0.777782556238460   0.875000000000000   1.0000000
N2   N   0.222227539910479   0.277780436621801   0.875000000000000   1.0000000
N2   N   0.722219563378009   0.777772460089727   0.875000000000000   1.0000000
N2   N   0.555537306655940   0.277764754231969   0.875000000000000   1.0000000
N2   N   0.888886921180533   0.277778150970231   0.875000000000000   1.0000000
N2   N   0.222222222222221   0.777777777777779   0.375000000000000   1.0000000
N2   N   0.053992633284979   0.277271390079264   0.375000000000000   1.0000000
N2   N   0.376258690329023   0.265632351965843   0.375000000000000   1.0000000
N2   N   0.555027329680837   0.782870821607980   0.375000000000000   1.0000000
N2   N   0.894510158593806   0.782870821607938   0.375000000000000   1.0000000
N2   N   0.724768161333262   0.275231838666794   0.375000000000000   1.0000000
N2   N   0.055557960760993   0.944442039239221   0.875000000000000   1.0000000
N2   N   0.388889240843393   0.944440017938285   0.875000000000000   1.0000000
N2   N   0.222219596843678   0.444448811634813   0.875000000000000   1.0000000
N2   N   0.555555555555557   0.444444444444443   0.875000000000000   1.0000000
N2   N   0.722221849029860   0.944442103543370   0.875000000000000   1.0000000
N2   N   0.888895881457543   0.444448811634813   0.875000000000000   1.0000000
N2   N   0.055804753236197   0.444942839805932   0.375000000000000   1.0000000
N2   N   0.221717626102005   0.943094738210857   0.375000000000000   1.0000000
N2   N   0.555057160194604   0.944195246763907   0.375000000000000   1.0000000
N2   N   0.376258690329027   0.443959671696637   0.375000000000000   1.0000000
N2   N   0.889945423460962   0.946007366715056   0.375000000000000   1.0000000
N2   N   0.734367648034421   0.443959671696640   0.375000000000000   1.0000000
N2   N   0.222217443761469   0.611110759156246   0.875000000000000   1.0000000
N2   N   0.055557896456305   0.111113078819362   0.875000000000000   1.0000000
N2   N   0.555537306655940   0.611105885757185   0.875000000000000   1.0000000
N2   N   0.388885381039388   0.111104095411841   0.875000000000000   1.0000000
N2   N   0.888895904587881   0.611114618960951   0.875000000000000   1.0000000
N2   N   0.056905261789110   0.611956221224248   0.375000000000000   1.0000000
N2   N   0.722221849029860   0.111113078819362   0.875000000000000   1.0000000
N2   N   0.217129178392211   0.105489841406164   0.375000000000000   1.0000000
N2   N   0.387269722363006   0.612730277637332   0.375000000000000   1.0000000
N2   N   0.734367648034422   0.623741309671091   0.375000000000000   1.0000000
N2   N   0.555027329680837   0.105489841406164   0.375000000000000   1.0000000
N2   N   0.388885381039388   0.611114618960951   0.875000000000000   1.0000000
N2   N   0.888888888888886   0.111111111111114   0.375000000000000   1.0000000
N2   N   0.222222222222221   0.777777777777779   0.875000000000000   1.0000000
N2   N   0.055557896456305   0.277778150970231   0.875000000000000   1.0000000
N2   N   0.388894114242704   0.277764754231969   0.875000000000000   1.0000000
N2   N   0.555551188365275   0.777780403155997   0.875000000000000   1.0000000
N2   N   0.888895881457543   0.777780403155997   0.875000000000000   1.0000000
N2   N   0.722219563378009   0.277780436621801   0.875000000000000   1.0000000
N2   N   0.056905261789109   0.778282373898203   0.375000000000000   1.0000000
N2   N   0.388043778775627   0.778282373898160   0.375000000000000   1.0000000
N2   N   0.217130344000568   0.275231838666794   0.375000000000000   1.0000000
N2   N   0.724768161333269   0.782869655999769   0.375000000000000   1.0000000
N2   N   0.556040328303610   0.265632351965838   0.375000000000000   1.0000000
N2   N   0.889945423460962   0.277271390079264   0.375000000000000   1.0000000
N2   N   0.055557960760993   0.444449254855364   0.875000000000000   1.0000000
N2   N   0.222217443761421   0.944440017938285   0.875000000000000   1.0000000
N2   N   0.555550745144610   0.944442039239221   0.875000000000000   1.0000000
N2   N   0.388894114242697   0.444462693344129   0.875000000000000   1.0000000
N2   N   0.888886921180533   0.944442103543370   0.875000000000000   1.0000000
N2   N   0.055804753236198   0.944195246763907   0.375000000000000   1.0000000
N2   N   0.722235245768303   0.444462693344129   0.875000000000000   1.0000000
N2   N   0.388043778775627   0.943094738210835   0.375000000000000   1.0000000
N2   N   0.217129178392198   0.444972670319247   0.375000000000000   1.0000000
N2   N   0.221717626102005   0.611956221224248   0.375000000000000   1.0000000
N2   N   0.722728609920875   0.946007366715056   0.375000000000000   1.0000000
N2   N   0.894510158593806   0.444972670319235   0.375000000000000   1.0000000
N2   N   0.055559982061778   0.611110759156246   0.875000000000000   1.0000000
N2   N   0.222219596843678   0.111104118542260   0.875000000000000   1.0000000
N2   N   0.722235245768303   0.611105885757185   0.875000000000000   1.0000000
N2   N   0.555551188365275   0.111104118542260   0.875000000000000   1.0000000
N2   N   0.888888888888886   0.111111111111114   0.875000000000000   1.0000000
B2   B   0.107979706968389   0.053204215074441   0.375000000000000   1.0000000
B2   B   0.630353132286186   0.594039597905045   0.375000000000000   1.0000000
B2   B   0.443640789841295   0.052965897977026   0.375000000000000   1.0000000
B2   B   0.947034102022860   0.556359210158519   0.375000000000000   1.0000000
B2   B   0.778463297198387   0.055898315266048   0.375000000000000   1.0000000
B2   B   0.111107799815056   0.722220566574257   0.875000000000000   1.0000000
B2   B   0.444433445246852   0.722225347895335   0.875000000000000   1.0000000
B2   B   0.277774161552741   0.222218251911922   0.875000000000000   1.0000000
B2   B   0.777781748087891   0.722225838447296   0.875000000000000   1.0000000
B2   B   0.611110757025971   0.222218251911922   0.875000000000000   1.0000000
B2   B   0.944444480218761   0.222222293770190   0.875000000000000   1.0000000
B2   B   0.277405038860665   0.722594961139432   0.375000000000000   1.0000000
B2   B   0.107501607240336   0.220417470286854   0.375000000000000   1.0000000
B2   B   0.442144148734375   0.217621630802131   0.375000000000000   1.0000000
B2   B   0.613060830862067   0.732731621958279   0.375000000000000   1.0000000
B2   B   0.947034102022860   0.724008225197470   0.375000000000000   1.0000000
B2   B   0.779582529713114   0.220417470286854   0.375000000000000   1.0000000
B2   B   0.111110737044652   0.888889262955282   0.875000000000000   1.0000000
B2   B   0.444445192577370   0.888889262955282   0.875000000000000   1.0000000
B2   B   0.277774161552741   0.388889242974133   0.875000000000000   1.0000000
B2   B   0.611118335160715   0.388881664839025   0.875000000000000   1.0000000
B2   B   0.777781921858070   0.888897177049429   0.875000000000000   1.0000000
B2   B   0.944452349721511   0.388882737782888   0.875000000000000   1.0000000
B2   B   0.107979706968382   0.388108825227246   0.375000000000000   1.0000000
B2   B   0.277405038860665   0.888143411054658   0.375000000000000   1.0000000
B2   B   0.611891174772762   0.892020293031923   0.375000000000000   1.0000000
B2   B   0.405960402094661   0.369646867714113   0.375000000000000   1.0000000
B2   B   0.946795784925259   0.892020293031923   0.375000000000000   1.0000000
B2   B   0.786337457763221   0.386939169138366   0.375000000000000   1.0000000
B2   B   0.277774652104943   0.555566554753365   0.875000000000000   1.0000000
B2   B   0.111097054727975   0.055547650278437   0.875000000000000   1.0000000
B2   B   0.611118335160715   0.555570003655285   0.875000000000000   1.0000000
B2   B   0.444433445246852   0.055541430684824   0.875000000000000   1.0000000
B2   B   0.944458569315190   0.555566554753365   0.875000000000000   1.0000000
B2   B   0.111309248085703   0.555951829504677   0.375000000000000   1.0000000
B2   B   0.777777706229822   0.055555519781514   0.875000000000000   1.0000000
B2   B   0.275991774802375   0.052965897977025   0.375000000000000   1.0000000
B2   B   0.442144148734458   0.557855851265867   0.375000000000000   1.0000000
B2   B   0.782378369197713   0.557855851265845   0.375000000000000   1.0000000
B2   B   0.611891174772762   0.053204215074441   0.375000000000000   1.0000000
B2   B   0.444437901519696   0.555562098480114   0.875000000000000   1.0000000
B2   B   0.944101684733835   0.055898315266049   0.375000000000000   1.0000000
B2   B   0.277779433425689   0.722220566574257   0.875000000000000   1.0000000
B2   B   0.111102822950433   0.222218078141896   0.875000000000000   1.0000000
B2   B   0.444437901519696   0.222209136372672   0.875000000000000   1.0000000
B2   B   0.611110757025971   0.722225838447296   0.875000000000000   1.0000000
B2   B   0.944458569315190   0.722225347895335   0.875000000000000   1.0000000
B2   B   0.777781921858070   0.222218078141896   0.875000000000000   1.0000000
B2   B   0.111856588945578   0.722594961139432   0.375000000000000   1.0000000
B2   B   0.443640789841295   0.724008225197470   0.375000000000000   1.0000000
B2   B   0.267268378041879   0.213662542236872   0.375000000000000   1.0000000
B2   B   0.786337457763217   0.732731621958258   0.375000000000000   1.0000000
B2   B   0.613060830862086   0.213662542236872   0.375000000000000   1.0000000
B2   B   0.944101684733835   0.221536702801208   0.375000000000000   1.0000000
B2   B   0.111097054727974   0.388882737782888   0.875000000000000   1.0000000
B2   B   0.277779433425689   0.888892200184706   0.875000000000000   1.0000000
B2   B   0.611117262217002   0.888902945271795   0.875000000000000   1.0000000
B2   B   0.444429996344754   0.388881664839024   0.875000000000000   1.0000000
B2   B   0.944452349721511   0.888902945271795   0.875000000000000   1.0000000
B2   B   0.111309248085732   0.888690751913922   0.375000000000000   1.0000000
B2   B   0.777781748087891   0.388889242974133   0.875000000000000   1.0000000
B2   B   0.444048170495019   0.888690751913922   0.375000000000000   1.0000000
B2   B   0.267268378041870   0.386939169138366   0.375000000000000   1.0000000
B2   B   0.275991774802400   0.556359210158519   0.375000000000000   1.0000000
B2   B   0.630353132286149   0.369646867714115   0.375000000000000   1.0000000
B2   B   0.779582529713107   0.892498392759562   0.375000000000000   1.0000000
B2   B   0.946795784925259   0.388108825227246   0.375000000000000   1.0000000
B2   B   0.111110737044652   0.555554807422567   0.875000000000000   1.0000000
B2   B   0.277774652104951   0.055541430684824   0.875000000000000   1.0000000
B2   B   0.777790863627242   0.555562098480114   0.875000000000000   1.0000000
B2   B   0.611117262217002   0.055547650278448   0.875000000000000   1.0000000
B2   B   0.944444480218761   0.055555519781514   0.875000000000000   1.0000000
B2   B   0.055497165178822   0.111061663067526   0.125038722323926   1.0000000
B2   B   0.555632590799420   0.611259974139181   0.123499039449273   1.0000000
B2   B   0.388859908177071   0.111053149687515   0.124488178555363   1.0000000
B2   B   0.888946850312515   0.611140091822677   0.124488178555363   1.0000000
B2   B   0.722231164555625   0.111061663067525   0.125038722323926   1.0000000
B2   B   0.055557071576835   0.777762236044680   0.624937599668250   1.0000000
B2   B   0.388871831134697   0.777762236044680   0.624937599668250   1.0000000
B2   B   0.222129604466535   0.277731468900011   0.625815321656943   1.0000000
B2   B   0.722268531100028   0.777870395533300   0.625815321656943   1.0000000
B2   B   0.555632590799427   0.277705949992952   0.626500960551083   1.0000000
B2   B   0.888938336932320   0.277768835444702   0.624961277676304   1.0000000
B2   B   0.222222222222221   0.777777777777779   0.125127772981259   1.0000000
B2   B   0.055497165178825   0.277768835444702   0.125038722323926   1.0000000
B2   B   0.388740025860537   0.277705949992952   0.123499039449259   1.0000000
B2   B   0.555570705146980   0.777843747138976   0.124544019593144   1.0000000
B2   B   0.888939708658713   0.777843747138976   0.124544019593144   1.0000000
B2   B   0.722268531100035   0.277731468900011   0.124184678343334   1.0000000
B2   B   0.055538110220467   0.944461889779586   0.624894640715428   1.0000000
B2   B   0.388871831134694   0.944442928423224   0.624937599668250   1.0000000
B2   B   0.222156252861015   0.444429294853153   0.625455980406973   1.0000000
B2   B   0.555555555555557   0.444444444444443   0.625848266839782   1.0000000
B2   B   0.722231164555639   0.944502834821315   0.624961277676304   1.0000000
B2   B   0.888939708658699   0.444429294853153   0.625455980406973   1.0000000
B2   B   0.055538110220467   0.444409553774333   0.125105359284730   1.0000000
B2   B   0.222237763955131   0.944442928423224   0.125062400331703   1.0000000
B2   B   0.555590446225711   0.944461889779586   0.125105359284730   1.0000000
B2   B   0.388740025860551   0.444367409201144   0.123499039449278   1.0000000
B2   B   0.888938336932313   0.944502834821315   0.125038722323926   1.0000000
B2   B   0.722294050007326   0.444367409201144   0.123499039449273   1.0000000
B2   B   0.222237763955147   0.611128168865135   0.624937599668250   1.0000000
B2   B   0.055497165178825   0.111061663067526   0.624961277676304   1.0000000
B2   B   0.555632590799420   0.611259974139181   0.626500960551083   1.0000000
B2   B   0.388859908177071   0.111053149687515   0.625511821444505   1.0000000
B2   B   0.888946850312515   0.611140091822677   0.625511821444505   1.0000000
B2   B   0.055557071576835   0.611128168865135   0.125062400331703   1.0000000
B2   B   0.722231164555625   0.111061663067526   0.624961277676304   1.0000000
B2   B   0.222156252861015   0.111060291341176   0.124544019593138   1.0000000
B2   B   0.388859908177071   0.611140091822677   0.124488178555371   1.0000000
B2   B   0.722294050007326   0.611259974139181   0.123499039449278   1.0000000
B2   B   0.555570705146980   0.111060291341176   0.124544019593144   1.0000000
B2   B   0.388859908177071   0.611140091822677   0.625511821444505   1.0000000
B2   B   0.888888888888886   0.111111111111114   0.125295462887501   1.0000000
B2   B   0.222222222222221   0.777777777777779   0.624872227018812   1.0000000
B2   B   0.055497165178825   0.277768835444702   0.624961277676304   1.0000000
B2   B   0.388740025860537   0.277705949992955   0.626500960551083   1.0000000
B2   B   0.555570705146980   0.777843747138976   0.625455980406973   1.0000000
B2   B   0.888939708658713   0.777843747138976   0.625455980406973   1.0000000
B2   B   0.722268531100028   0.277731468900011   0.625815321656943   1.0000000
B2   B   0.055557071576837   0.777762236044680   0.125062400331703   1.0000000
B2   B   0.388871831134697   0.777762236044680   0.125062400331703   1.0000000
B2   B   0.222129604466535   0.277731468900011   0.124184678343334   1.0000000
B2   B   0.722268531100035   0.777870395533300   0.124184678343334   1.0000000
B2   B   0.555632590799427   0.277705949992955   0.123499039449273   1.0000000
B2   B   0.888938336932320   0.277768835444702   0.125038722323926   1.0000000
B2   B   0.055538110220467   0.444409553774333   0.624894640715428   1.0000000
B2   B   0.222237763955139   0.944442928423224   0.624937599668250   1.0000000
B2   B   0.555590446225711   0.944461889779586   0.624894640715428   1.0000000
B2   B   0.388740025860526   0.444367409201144   0.626500960551083   1.0000000
B2   B   0.888938336932320   0.944502834821315   0.624961277676304   1.0000000
B2   B   0.055538110220467   0.944461889779586   0.125105359284730   1.0000000
B2   B   0.722294050007326   0.444367409201144   0.626500960551083   1.0000000
B2   B   0.388871831134697   0.944442928423224   0.125062400331703   1.0000000
B2   B   0.222156252861015   0.444429294853153   0.124544019593144   1.0000000
B2   B   0.222237763955131   0.611128168865135   0.125062400331703   1.0000000
B2   B   0.555555555555557   0.444444444444443   0.124151733160456   1.0000000
B2   B   0.722231164555639   0.944502834821315   0.125038722323926   1.0000000
B2   B   0.888939708658713   0.444429294853153   0.124544019593144   1.0000000
B2   B   0.055557071576837   0.611128168865135   0.624937599668250   1.0000000
B2   B   0.222156252861015   0.111060291341176   0.625455980406973   1.0000000
B2   B   0.722294050007326   0.611259974139181   0.626500960551083   1.0000000
B2   B   0.555570705146980   0.111060291341176   0.625455980406973   1.0000000
B2   B   0.888888888888886   0.111111111111114   0.624704537112786   1.0000000


