data_1
_audit_creation_method   'vasp2cif'
_cell_length_a    17.52789999999977
_cell_length_b    17.52789999999977
_cell_length_c    15.0
_cell_angle_alpha    90.0
_cell_angle_beta    90.0
_cell_angle_gamma    119.99999999999916

_symmetry_space_group_name_H-M    'P 1'
loop_
_atom_site_label
_atom_site_type_symbol
_atom_site_fract_x
_atom_site_fract_y
_atom_site_fract_z
_atom_site_occupancy
B2   B   0.905235901507402   0.952895156786556   0.110839019386821   1.0000000
B2   B   0.904706125134921   0.095295896061073   0.110599614439502   1.0000000
B2   B   0.904706125134921   0.237981535399850   0.110599614439502   1.0000000
B2   B   0.905235901507402   0.380913762602845   0.110839019386821   1.0000000
B2   B   0.906908831449417   0.524282135822649   0.110938231709941   1.0000000
B2   B   0.907054196112598   0.667813606997792   0.111340978082712   1.0000000
B2   B   0.906908831449417   0.811199713509785   0.110938231709941   1.0000000
B2   B   0.047773945299564   0.952228075896442   0.110363789238766   1.0000000
B2   B   0.047106864409448   0.094766119688595   0.110839019386821   1.0000000
B2   B   0.046918759918722   0.237745888900362   0.110741532267966   1.0000000
B2   B   0.047106864409448   0.380913762602845   0.110839019386821   1.0000000
B2   B   0.047773945299564   0.524120598842128   0.110363789238766   1.0000000
B2   B   0.048404854659669   0.667123781064488   0.110735849880050   1.0000000
B2   B   0.048404854659669   0.809855803034170   0.110735849880050   1.0000000
B2   B   0.190146218161835   0.951597166536334   0.110735849880050   1.0000000
B2   B   0.188802307686222   0.093093189746572   0.110938231709941   1.0000000
B2   B   0.188813286565342   0.236735301321451   0.111049963900843   1.0000000
B2   B   0.188813286565342   0.380651003125893   0.111049963900843   1.0000000
B2   B   0.188802307686222   0.524282135822648   0.110938231709941   1.0000000
B2   B   0.190146218161835   0.667123781064488   0.110735849880050   1.0000000
B2   B   0.190476437651000   0.809525583545003   0.110858252324446   1.0000000
B2   B   0.332878240132501   0.951597166536334   0.110735849880050   1.0000000
B2   B   0.332188414199201   0.092947825083397   0.111340978082712   1.0000000
B2   B   0.328985632082282   0.232621005870217   0.111383689634983   1.0000000
B2   B   0.330346846474950   0.379459932177974   0.111662900800420   1.0000000
B2   B   0.328985632082282   0.524937644094067   0.111383689634983   1.0000000
B2   B   0.332188414199201   0.667813606997792   0.111340978082712   1.0000000
B2   B   0.332878240132500   0.809855803034170   0.110735849880050   1.0000000
B2   B   0.475881422354877   0.952228075896442   0.110363789238766   1.0000000
B2   B   0.475719885374354   0.093093189746572   0.110938231709941   1.0000000
B2   B   0.475064377102931   0.232621005870217   0.111383689634983   1.0000000
B2   B   0.466976427339818   0.362523851364638   0.111947319235576   1.0000000
B2   B   0.466976427339818   0.533025593857177   0.111947319235576   1.0000000
B2   B   0.475064377102931   0.671016389114715   0.111383689634983   1.0000000
B2   B   0.475719885374353   0.811199713509785   0.110938231709941   1.0000000
B2   B   0.619088258593156   0.952895156786556   0.110839019386821   1.0000000
B2   B   0.619088258593156   0.094766119688595   0.110839019386821   1.0000000
B2   B   0.619351018070109   0.236735301321451   0.111049963900843   1.0000000
B2   B   0.620542089018025   0.379459932177974   0.111662900800420   1.0000000
B2   B   0.637478169831363   0.533025593857177   0.111947319235576   1.0000000
B2   B   0.620542089018025   0.669655174722051   0.111662900800420   1.0000000
B2   B   0.619351018070109   0.811188734630659   0.111049963900843   1.0000000
B2   B   0.762256132295643   0.953083261277278   0.110741532267966   1.0000000
B2   B   0.762020485796155   0.095295896061073   0.110599614439502   1.0000000
B2   B   0.762256132295643   0.237745888900362   0.110741532267966   1.0000000
B2   B   0.763266719874551   0.380651003125893   0.111049963900843   1.0000000
B2   B   0.767381015325788   0.524937644094067   0.111383689634983   1.0000000
B2   B   0.767381015325788   0.671016389114715   0.111383689634983   1.0000000
B2   B   0.763266719874556   0.811188734630659   0.111049963900843   1.0000000
N2   N   0.953072169513548   0.905531485581101   0.110597331389126   1.0000000
N2   N   0.952278681892691   0.047722720025313   0.110990451418020   1.0000000
N2   N   0.952140921577269   0.190355258165130   0.110397070855034   1.0000000
N2   N   0.952278681892691   0.333125556620382   0.110990451418020   1.0000000
N2   N   0.953072169513548   0.476111990241435   0.110597331389126   1.0000000
N2   N   0.953438529058595   0.619381196661554   0.111257144514769   1.0000000
N2   N   0.953438529058595   0.762628638707027   0.111257144514769   1.0000000
N2   N   0.095314788531809   0.904686613386184   0.110002001236682   1.0000000
N2   N   0.094469916336897   0.046929232404464   0.110597331389126   1.0000000
N2   N   0.094446641106681   0.190001744047322   0.110889866489835   1.0000000
N2   N   0.094446641106681   0.333016203368360   0.110889866489835   1.0000000
N2   N   0.094469916336897   0.476111990241435   0.110597331389126   1.0000000
N2   N   0.095314788531809   0.619201193011615   0.110002001236682   1.0000000
N2   N   0.095555937418686   0.762064477642344   0.110920894591780   1.0000000
N2   N   0.237936924275658   0.904445464499309   0.110920894591780   1.0000000
N2   N   0.237372763210975   0.046562872859416   0.111257144514769   1.0000000
N2   N   0.235492153198531   0.187992278437154   0.111013445944254   1.0000000
N2   N   0.236574750026234   0.332573028167616   0.111250235019654   1.0000000
N2   N   0.235492153198531   0.476071181070368   0.111013445944254   1.0000000
N2   N   0.237372763210974   0.619381196661554   0.111257144514769   1.0000000
N2   N   0.237936924275658   0.762064477642345   0.110920894591779   1.0000000
N2   N   0.380800208906379   0.904686613386185   0.110002001236681   1.0000000
N2   N   0.380620205256441   0.046562872859416   0.111257144514769   1.0000000
N2   N   0.379784675767958   0.188139255927911   0.111288540710512   1.0000000
N2   N   0.375547271484230   0.327853588113682   0.111774809116178   1.0000000
N2   N   0.375547271484229   0.476264989679541   0.111774809116178   1.0000000
N2   N   0.379784675767958   0.620216726150043   0.111288540710512   1.0000000
N2   N   0.380620205256442   0.762628638707027   0.111257144514769   1.0000000
N2   N   0.523889411675557   0.905531485581101   0.110597331389126   1.0000000
N2   N   0.523889411675557   0.046929232404464   0.110597331389126   1.0000000
N2   N   0.523930220846620   0.187992278437154   0.111013445944254   1.0000000
N2   N   0.523736412237446   0.327853588113682   0.111774809116177   1.0000000
N2   N   0.523736412237446   0.624454130433758   0.111774809116178   1.0000000
N2   N   0.523930220846620   0.764509248719483   0.111013445944254   1.0000000
N2   N   0.666985198548631   0.905554760811317   0.110889866489835   1.0000000
N2   N   0.666875845296621   0.047722720025313   0.110990451418020   1.0000000
N2   N   0.666985198548631   0.190001744047321   0.110889866489835   1.0000000
N2   N   0.667428373749386   0.332573028167617   0.111250235019654   1.0000000
N2   N   0.672147813803310   0.476264989679540   0.111774809116178   1.0000000
N2   N   0.672147813803310   0.624454130433758   0.111774809116177   1.0000000
N2   N   0.667428373749386   0.763426651891770   0.111250235019654   1.0000000
N2   N   0.809999657870671   0.905554760811317   0.110889866489835   1.0000000
N2   N   0.809646143752867   0.047860480340743   0.110397070855034   1.0000000
N2   N   0.809646143752865   0.190355258165130   0.110397070855034   1.0000000
N2   N   0.809999657870671   0.333016203368363   0.110889866489835   1.0000000
N2   N   0.812009123480849   0.476071181070368   0.111013445944254   1.0000000
N2   N   0.811862145990083   0.620216726150043   0.111288540710512   1.0000000
N2   N   0.812009123480849   0.764509248719483   0.111013445944254   1.0000000
S2   S   0.523810499174999   0.476190902741997   0.111709652184893   1.0000000


