data_1
_audit_creation_method   'vasp2cif'
_cell_length_a    17.52789999999977
_cell_length_b    17.52789999999977
_cell_length_c    15.0
_cell_angle_alpha    90.0
_cell_angle_beta    90.0
_cell_angle_gamma    119.99999999999916

_symmetry_space_group_name_H-M    'P 1'
loop_
_atom_site_label
_atom_site_type_symbol
_atom_site_fract_x
_atom_site_fract_y
_atom_site_fract_z
_atom_site_occupancy
Sb2   Sb   0.476105660033853   0.523938135264733   0.230559760841919   1.0000000
B2   B   0.904985495665773   0.952501729077638   0.103281852870552   1.0000000
B2   B   0.904790660594835   0.095210804849721   0.100264402217238   1.0000000
B2   B   0.904737303306408   0.238075281402259   0.099071634679642   1.0000000
B2   B   0.904784915579751   0.380980697202535   0.100231855152178   1.0000000
B2   B   0.904972208537505   0.523880794062595   0.103337897137752   1.0000000
B2   B   0.904796986109130   0.666744545025535   0.107560203148271   1.0000000
B2   B   0.904778290662152   0.809453111871545   0.107502088461109   1.0000000
B2   B   0.047646687767651   0.952354666765968   0.104956564773857   1.0000000
B2   B   0.047501901818270   0.095015921969249   0.103286581649307   1.0000000
B2   B   0.047463745642367   0.237935746038607   0.101849632467682   1.0000000
B2   B   0.047452989261911   0.380942995567721   0.101848212465128   1.0000000
B2   B   0.047485510169108   0.523897948558995   0.103282133799239   1.0000000
B2   B   0.047651124969985   0.666736156652613   0.104925653985123   1.0000000
B2   B   0.047656443539854   0.809560786422719   0.105884543584331   1.0000000
B2   B   0.190445982300095   0.952348431767716   0.105907276952741   1.0000000
B2   B   0.190546652465560   0.095221014912818   0.107552535600063   1.0000000
B2   B   0.189803779301849   0.237331034266744   0.108471187538185   1.0000000
B2   B   0.189825414420977   0.380617541904425   0.109380780295019   1.0000000
B2   B   0.189781693404548   0.523903947413855   0.108510930286320   1.0000000
B2   B   0.190525319503789   0.666757329944483   0.107552315691315   1.0000000
B2   B   0.190452136087736   0.809547575070549   0.105922082171558   1.0000000
B2   B   0.333266955719450   0.952351592250613   0.104982120293635   1.0000000
B2   B   0.333259354636745   0.095208208357193   0.107647244489686   1.0000000
B2   B   0.333356745347872   0.238135199685210   0.118260310840443   1.0000000
B2   B   0.329704413618516   0.378442827348859   0.133104093844215   1.0000000
B2   B   0.329676061362100   0.522683953507414   0.133054661095178   1.0000000
B2   B   0.333340472726292   0.666672283599952   0.118260252408614   1.0000000
B2   B   0.333246899220082   0.809481136339010   0.107577551663632   1.0000000
B2   B   0.476106260110317   0.952521725308459   0.103341838855526   1.0000000
B2   B   0.476120780543277   0.095029706101539   0.103411422272146   1.0000000
B2   B   0.476110335483319   0.237341481999052   0.108677294483238   1.0000000
B2   B   0.477335649207601   0.378440955155763   0.133370876043383   1.0000000
B2   B   0.477319996447510   0.670318858460876   0.133057553092007   1.0000000
B2   B   0.476105405835749   0.810223781524692   0.108537974761760   1.0000000
B2   B   0.619061821434762   0.952557282160007   0.101888972269667   1.0000000
B2   B   0.619017138581395   0.095213381672499   0.100285209040928   1.0000000
B2   B   0.619066606891074   0.237923336902205   0.101962202060279   1.0000000
B2   B   0.619381552267760   0.380615314967665   0.109576101219915   1.0000000
B2   B   0.621553480692269   0.522658925190328   0.133327683418288   1.0000000
B2   B   0.621566392663742   0.670294236748774   0.133100319269638   1.0000000
B2   B   0.619384514266195   0.810173890633166   0.109374693976812   1.0000000
B2   B   0.762067477724121   0.952540382043576   0.101854367113807   1.0000000
B2   B   0.761923503762935   0.095262020544926   0.099096805010827   1.0000000
B2   B   0.761915792826348   0.238068696053895   0.099078551009039   1.0000000
B2   B   0.762066719604961   0.380925345714853   0.101923984121597   1.0000000
B2   B   0.762658078916491   0.523888175723508   0.108620516163807   1.0000000
B2   B   0.761869470435802   0.666646165541111   0.118191018766491   1.0000000
B2   B   0.762659506989096   0.810189264167452   0.108439094224489   1.0000000
N2   N   0.952421033803411   0.904722661251666   0.104882690172627   1.0000000
N2   N   0.952407289971340   0.047597423566574   0.101876355303560   1.0000000
N2   N   0.952304024813214   0.190408861966916   0.099750678450483   1.0000000
N2   N   0.952300105145317   0.333304434046219   0.099706400395261   1.0000000
N2   N   0.952391545089365   0.476209389002971   0.101878446354737   1.0000000
N2   N   0.952421592337791   0.619109515256564   0.104914944283326   1.0000000
N2   N   0.952466413241730   0.761944033499350   0.107166368387036   1.0000000
N2   N   0.095251145281640   0.904756749733159   0.105556903199247   1.0000000
N2   N   0.095278500523519   0.047580709219164   0.104901461859534   1.0000000
N2   N   0.094860737733904   0.190075989040518   0.103459514004603   1.0000000
N2   N   0.094885831708801   0.333153124692441   0.103124994356400   1.0000000
N2   N   0.094846382135989   0.476203202846769   0.103475560400108   1.0000000
N2   N   0.095265875014637   0.619122750387583   0.104877954873750   1.0000000
N2   N   0.095249937984755   0.761947523000850   0.105544291510134   1.0000000
N2   N   0.238055945683570   0.904751419531929   0.105575270211162   1.0000000
N2   N   0.238059051435344   0.047537844350006   0.107224724075787   1.0000000
N2   N   0.238111080843756   0.190382893046086   0.111387718745603   1.0000000
N2   N   0.236698959695835   0.332041417918043   0.112656490247943   1.0000000
N2   N   0.236671021491299   0.476074352522379   0.112649105586723   1.0000000
N2   N   0.238091417445272   0.619159670453268   0.111424630341724   1.0000000
N2   N   0.238046502992132   0.761954347170576   0.107211100848466   1.0000000
N2   N   0.380879431297661   0.904739746201216   0.104925601525003   1.0000000
N2   N   0.380890378276554   0.047580027954514   0.104994253816772   1.0000000
N2   N   0.380854977051419   0.190376330975243   0.111525752967916   1.0000000
N2   N   0.380681862603773   0.332775015659029   0.132962020375105   1.0000000
N2   N   0.368152385935091   0.469807875630604   0.154609222727095   1.0000000
N2   N   0.380664402491016   0.619335260641496   0.132842359743598   1.0000000
N2   N   0.380845245340632   0.761916761426320   0.111447175543746   1.0000000
N2   N   0.523802386587910   0.905161406241634   0.103521828004468   1.0000000
N2   N   0.523790710312600   0.047612008787501   0.101949210222657   1.0000000
N2   N   0.523807398308564   0.190087127711986   0.103636253552081   1.0000000
N2   N   0.523935869365765   0.332052352354892   0.112892654783297   1.0000000
N2   N   0.530220682516880   0.469785286640030   0.155025762976804   1.0000000
N2   N   0.530206610929308   0.631855887695768   0.154604127389792   1.0000000
N2   N   0.523928370002921   0.763321874260867   0.112655551074196   1.0000000
N2   N   0.666849798772538   0.905118312171022   0.103140138730742   1.0000000
N2   N   0.666698167284289   0.047704431510124   0.099757520944916   1.0000000
N2   N   0.666695523009417   0.190404893268755   0.099771294338819   1.0000000
N2   N   0.666849336726373   0.333143968251595   0.103236674902579   1.0000000
N2   N   0.667944933582117   0.476061718875702   0.112854455946446   1.0000000
N2   N   0.667226344849816   0.619314751758428   0.132908088615355   1.0000000
N2   N   0.667951189117957   0.763289845816193   0.112628934923771   1.0000000
N2   N   0.809923240620347   0.905139292275163   0.103442502008886   1.0000000
N2   N   0.809593563694718   0.047699255848456   0.099767413277297   1.0000000
N2   N   0.809528955118685   0.190471843396317   0.098406507706427   1.0000000
N2   N   0.809591313317123   0.333299171319343   0.099735456714641   1.0000000
N2   N   0.809911060639384   0.476189071550220   0.103573953064609   1.0000000
N2   N   0.809626325124936   0.619147255130554   0.111435960804587   1.0000000
N2   N   0.809616720581679   0.761890456723413   0.111320882136622   1.0000000


