data_1
_audit_creation_method   'vasp2cif'
_cell_length_a    14.93631414619966
_cell_length_b    14.936314146199727
_cell_length_c    13.341276283792837
_cell_angle_alpha    90.0
_cell_angle_beta    90.0
_cell_angle_gamma    119.99999999999984

_symmetry_space_group_name_H-M    'P 1'
loop_
_atom_site_label
_atom_site_type_symbol
_atom_site_fract_x
_atom_site_fract_y
_atom_site_fract_z
_atom_site_occupancy
N2   N   0.111103454267342   0.055561039850944   0.124922344689378   1.0000000
N2   N   0.611178621123173   0.555559508750521   0.123812078541234   1.0000000
N2   N   0.444466193203359   0.055568295896168   0.124903950565170   1.0000000
N2   N   0.944444262224018   0.555533968889878   0.124909144404490   1.0000000
N2   N   0.777791516881694   0.055567155748517   0.124897284678136   1.0000000
N2   N   0.111107275291516   0.722210153925836   0.625103236258847   1.0000000
N2   N   0.444455642293064   0.722216909753394   0.625135195368588   1.0000000
N2   N   0.277773451078871   0.222234252751719   0.625096501098812   1.0000000
N2   N   0.777777113451925   0.722218827902597   0.625175032377745   1.0000000
N2   N   0.611142043784534   0.222213549524874   0.625126506327805   1.0000000
N2   N   0.944440369640631   0.222215336832784   0.625103682424970   1.0000000
N2   N   0.277784155566635   0.722210973081086   0.124906163257332   1.0000000
N2   N   0.111092862975161   0.222216141469674   0.124922198270728   1.0000000
N2   N   0.444464840748198   0.222243526936385   0.124798878953505   1.0000000
N2   N   0.611146034871495   0.722272996866897   0.124414861130912   1.0000000
N2   N   0.944434685390866   0.722211233230689   0.124918474121294   1.0000000
N2   N   0.777796411912378   0.222211590100136   0.124912736145575   1.0000000
N2   N   0.111106676725326   0.888891740076471   0.625102840906608   1.0000000
N2   N   0.444463590451133   0.888892888772895   0.625099660023280   1.0000000
N2   N   0.277749642429496   0.388876641495296   0.625196351778902   1.0000000
N2   N   0.611187547474162   0.388844543723379   0.626119719863788   1.0000000
N2   N   0.777786154980594   0.888905794419258   0.625130713930778   1.0000000
N2   N   0.944446546163050   0.388872800152208   0.625083536597666   1.0000000
N2   N   0.111088469327927   0.388872111292633   0.124903221922341   1.0000000
N2   N   0.277789313996350   0.888893014627658   0.124898340278549   1.0000000
N2   N   0.611131324036461   0.888905773606896   0.124855265908876   1.0000000
N2   N   0.444397886108555   0.388878565759305   0.124233251763019   1.0000000
N2   N   0.944435575358488   0.888890397448242   0.124927066467934   1.0000000
N2   N   0.777807497221263   0.388859790632624   0.124832631626552   1.0000000
N2   N   0.277761267305293   0.555533093577999   0.625157416542348   1.0000000
N2   N   0.111103454267342   0.055561039850944   0.625077655310623   1.0000000
N2   N   0.611178621123173   0.555559508750521   0.626187921458766   1.0000000
N2   N   0.444466193203359   0.055568295896168   0.625096049434830   1.0000000
N2   N   0.944444262224018   0.555533968889878   0.625090855595510   1.0000000
N2   N   0.111101320595883   0.555536320049828   0.124890915103689   1.0000000
N2   N   0.777791516881694   0.055567155748517   0.625102715321864   1.0000000
N2   N   0.277787239273635   0.055572475109784   0.124912220522752   1.0000000
N2   N   0.444397847976958   0.555529944839741   0.124355670458811   1.0000000
N2   N   0.777792091086711   0.555535873831672   0.124734866737175   1.0000000
N2   N   0.611129699513825   0.055559686182796   0.124931735459438   1.0000000
N2   N   0.444397847976958   0.555529944839741   0.625644329541189   1.0000000
N2   N   0.944440604071829   0.055558670506308   0.124914648960860   1.0000000
N2   N   0.277784155566635   0.722210973081086   0.625093836742668   1.0000000
N2   N   0.111092862975161   0.222216141469674   0.625077801729272   1.0000000
N2   N   0.444464840748198   0.222243526936385   0.625201121046494   1.0000000
N2   N   0.611146034871495   0.722272996866897   0.625585138869087   1.0000000
N2   N   0.944434685390866   0.722211233230689   0.625081525878706   1.0000000
N2   N   0.777796411912378   0.222211590100136   0.625087263854425   1.0000000
N2   N   0.111107275291516   0.722210153925836   0.124896763741153   1.0000000
N2   N   0.444455642293064   0.722216909753394   0.124864804631412   1.0000000
N2   N   0.277773451078871   0.222234252751719   0.124903498901187   1.0000000
N2   N   0.777777113451925   0.722218827902597   0.124824967622255   1.0000000
N2   N   0.611142043784534   0.222213549524874   0.124873493672194   1.0000000
N2   N   0.944440369640631   0.222215336832784   0.124896317575030   1.0000000
N2   N   0.111088469327927   0.388872111292633   0.625096778077659   1.0000000
N2   N   0.277789313996350   0.888893014627658   0.625101659721451   1.0000000
N2   N   0.611131324036461   0.888905773606896   0.625144734091124   1.0000000
N2   N   0.444397886108555   0.388878565759305   0.625766748236981   1.0000000
N2   N   0.944435575358488   0.888890397448242   0.625072933532067   1.0000000
N2   N   0.111106676725326   0.888891740076471   0.124897159093392   1.0000000
N2   N   0.777807497221263   0.388859790632624   0.625167368373448   1.0000000
N2   N   0.444463590451133   0.888892888772895   0.124900339976720   1.0000000
N2   N   0.277749642429496   0.388876641495296   0.124803648221098   1.0000000
N2   N   0.277761267305293   0.555533093577999   0.124842583457653   1.0000000
N2   N   0.611187547474162   0.388844543723379   0.123880280136212   1.0000000
N2   N   0.777786154980594   0.888905794419258   0.124869286069222   1.0000000
N2   N   0.944446546163050   0.388872800152208   0.124916463402335   1.0000000
N2   N   0.111101320595883   0.555536320049828   0.625109084896312   1.0000000
N2   N   0.277787239273635   0.055572475109784   0.625087779477247   1.0000000
N2   N   0.777792091086711   0.555535873831672   0.625265133262824   1.0000000
N2   N   0.611129699513825   0.055559686182796   0.625068264540563   1.0000000
N2   N   0.944440604071829   0.055558670506308   0.625085351039140   1.0000000
N2   N   0.055975516488878   0.111257974738375   0.375000000000000   1.0000000
N2   N   0.388711686358423   0.110749169141545   0.375000000000000   1.0000000
N2   N   0.889877220484843   0.611206160921757   0.375000000000000   1.0000000
N2   N   0.721926048475348   0.111748861170118   0.375000000000000   1.0000000
N2   N   0.055563736316618   0.777784534688172   0.875000000000000   1.0000000
N2   N   0.388885066918321   0.777787561138219   0.875000000000000   1.0000000
N2   N   0.222226832419781   0.277778804807348   0.875000000000000   1.0000000
N2   N   0.722226480157333   0.777779277005371   0.875000000000000   1.0000000
N2   N   0.555546875795592   0.277769507916714   0.875000000000000   1.0000000
N2   N   0.888892498394555   0.277783457019354   0.875000000000000   1.0000000
N2   N   0.222288660220347   0.777728276073963   0.375000000000000   1.0000000
N2   N   0.055573193867118   0.277647453713665   0.375000000000000   1.0000000
N2   N   0.392322921556740   0.279869223653218   0.375000000000000   1.0000000
N2   N   0.555835802341709   0.777973769357991   0.375000000000000   1.0000000
N2   N   0.888731718737733   0.777079840281031   0.375000000000000   1.0000000
N2   N   0.721071591958469   0.278661924132080   0.375000000000000   1.0000000
N2   N   0.055559893957273   0.944447354492321   0.875000000000000   1.0000000
N2   N   0.388885752770594   0.944445306361193   0.875000000000000   1.0000000
N2   N   0.222227039760440   0.444452440321340   0.875000000000000   1.0000000
N2   N   0.555550921763291   0.444443463256309   0.875000000000000   1.0000000
N2   N   0.722221072610755   0.944443837735202   0.875000000000000   1.0000000
N2   N   0.888897352418503   0.444453230291899   0.875000000000000   1.0000000
N2   N   0.055046929123483   0.444122293720410   0.375000000000000   1.0000000
N2   N   0.222340529856886   0.944431666481093   0.375000000000000   1.0000000
N2   N   0.555574011385807   0.945211986482661   0.375000000000000   1.0000000
N2   N   0.390879346370199   0.442197777131564   0.375000000000000   1.0000000
N2   N   0.889568613215295   0.944837687826840   0.375000000000000   1.0000000
N2   N   0.718036871025297   0.445143840392721   0.375000000000000   1.0000000
N2   N   0.222220971966430   0.611119093600854   0.875000000000000   1.0000000
N2   N   0.055558592430502   0.111109600712961   0.875000000000000   1.0000000
N2   N   0.555551182335593   0.611112836632060   0.875000000000000   1.0000000
N2   N   0.388881656130078   0.111099967515515   0.875000000000000   1.0000000
N2   N   0.888902410490333   0.611119895640863   0.875000000000000   1.0000000
N2   N   0.055520832441179   0.610933613547688   0.375000000000000   1.0000000
N2   N   0.722217408084025   0.111110341905327   0.875000000000000   1.0000000
N2   N   0.223485362699995   0.112031308156393   0.375000000000000   1.0000000
N2   N   0.387003139713468   0.610321707919085   0.375000000000000   1.0000000
N2   N   0.722491700306499   0.608043261026763   0.375000000000000   1.0000000
N2   N   0.555325987026940   0.112890783563916   0.375000000000000   1.0000000
N2   N   0.388886832749156   0.611121667274407   0.875000000000000   1.0000000
N2   N   0.888889634564313   0.111327263527938   0.375000000000000   1.0000000
N2   N   0.222222607369949   0.777783802788787   0.875000000000000   1.0000000
N2   N   0.055560848893744   0.277781746122326   0.875000000000000   1.0000000
N2   N   0.388885642736440   0.277769357360054   0.875000000000000   1.0000000
N2   N   0.555550247714402   0.777781256980890   0.875000000000000   1.0000000
N2   N   0.888900712050947   0.777785825414752   0.875000000000000   1.0000000
N2   N   0.722220555589106   0.277780423872121   0.875000000000000   1.0000000
N2   N   0.055873615340048   0.777865679481694   0.375000000000000   1.0000000
N2   N   0.388909386593813   0.777696507070062   0.375000000000000   1.0000000
N2   N   0.222720460922886   0.277281651771831   0.375000000000000   1.0000000
N2   N   0.723799711601004   0.778472751013129   0.375000000000000   1.0000000
N2   N   0.554241851784292   0.281302739654999   0.375000000000000   1.0000000
N2   N   0.888258096956763   0.277959459182663   0.375000000000000   1.0000000
N2   N   0.055560019199663   0.444452885526687   0.875000000000000   1.0000000
N2   N   0.222221416134323   0.944443172741521   0.875000000000000   1.0000000
N2   N   0.555549777136267   0.944446664976339   0.875000000000000   1.0000000
N2   N   0.388890125786597   0.444449235595981   0.875000000000000   1.0000000
N2   N   0.888895178020946   0.944446772349563   0.875000000000000   1.0000000
N2   N   0.055977858133929   0.944646173480566   0.375000000000000   1.0000000
N2   N   0.722230328395496   0.444453396238908   0.875000000000000   1.0000000
N2   N   0.388945842677624   0.944501144813188   0.375000000000000   1.0000000
N2   N   0.222882660354074   0.443746953347562   0.375000000000000   1.0000000
N2   N   0.221547084851123   0.610792937299873   0.375000000000000   1.0000000
N2   N   0.722404393612023   0.944724573478875   0.375000000000000   1.0000000
N2   N   0.887046748358570   0.444399731309184   0.375000000000000   1.0000000
N2   N   0.055561586903534   0.611118115640769   0.875000000000000   1.0000000
N2   N   0.222219744273734   0.111105828544970   0.875000000000000   1.0000000
N2   N   0.722231119817506   0.611117576209091   0.875000000000000   1.0000000
N2   N   0.555547536525824   0.111106677529564   0.875000000000000   1.0000000
N2   N   0.888891691645657   0.111110970625747   0.875000000000000   1.0000000
B2   B   0.111993226524855   0.056087991926098   0.375000000000000   1.0000000
B2   B   0.610457621730380   0.548561383133245   0.375000000000000   1.0000000
B2   B   0.444357321649238   0.055722269039678   0.375000000000000   1.0000000
B2   B   0.944432068992217   0.555440823833144   0.375000000000000   1.0000000
B2   B   0.777441970166870   0.055635726144799   0.375000000000000   1.0000000
B2   B   0.111112573586312   0.722225799619179   0.875000000000000   1.0000000
B2   B   0.444460895497510   0.722198343009548   0.875000000000000   1.0000000
B2   B   0.277827858576735   0.222263408667922   0.875000000000000   1.0000000
B2   B   0.777725539044914   0.722177723737370   0.875000000000000   1.0000000
B2   B   0.611087649998587   0.222249240484109   0.875000000000000   1.0000000
B2   B   0.944454246139729   0.222227429983913   0.875000000000000   1.0000000
B2   B   0.277934219234466   0.722006221761699   0.375000000000000   1.0000000
B2   B   0.111696289489289   0.222341328460184   0.375000000000000   1.0000000
B2   B   0.444301186407220   0.221869110557887   0.375000000000000   1.0000000
B2   B   0.611674834808279   0.720398311622409   0.375000000000000   1.0000000
B2   B   0.944606757810776   0.722114750946046   0.375000000000000   1.0000000
B2   B   0.776880289827811   0.222960341033979   0.375000000000000   1.0000000
B2   B   0.111107930476515   0.888886773274673   0.875000000000000   1.0000000
B2   B   0.444444316235366   0.888872894028044   0.875000000000000   1.0000000
B2   B   0.277856003876449   0.388936374571191   0.875000000000000   1.0000000
B2   B   0.611082202181164   0.388932746764860   0.875000000000000   1.0000000
B2   B   0.777738568632436   0.888827161683623   0.875000000000000   1.0000000
B2   B   0.944448450442289   0.388909844172870   0.875000000000000   1.0000000
B2   B   0.111701668244290   0.388886943613748   0.375000000000000   1.0000000
B2   B   0.277922790875677   0.888866500673696   0.375000000000000   1.0000000
B2   B   0.610747939389325   0.888459952460727   0.375000000000000   1.0000000
B2   B   0.453645692658499   0.392332202840216   0.375000000000000   1.0000000
B2   B   0.944363946856935   0.888448207597779   0.375000000000000   1.0000000
B2   B   0.774491939272281   0.389729380808015   0.375000000000000   1.0000000
B2   B   0.277836675910355   0.555578028253199   0.875000000000000   1.0000000
B2   B   0.111123095377309   0.055559484209807   0.875000000000000   1.0000000
B2   B   0.611075003438935   0.555549206311090   0.875000000000000   1.0000000
B2   B   0.444441392050464   0.055564226440192   0.875000000000000   1.0000000
B2   B   0.944429052895946   0.555568876799327   0.875000000000000   1.0000000
B2   B   0.110872940106762   0.555326531782894   0.375000000000000   1.0000000
B2   B   0.777755281171628   0.055524320717759   0.875000000000000   1.0000000
B2   B   0.278047165208832   0.055614722738463   0.375000000000000   1.0000000
B2   B   0.442529924116787   0.553731973969784   0.375000000000000   1.0000000
B2   B   0.778900918016750   0.555406196923091   0.375000000000000   1.0000000
B2   B   0.610689436351482   0.056565990595804   0.375000000000000   1.0000000
B2   B   0.444494761359865   0.555569784226914   0.875000000000000   1.0000000
B2   B   0.944735357826571   0.055734831219218   0.375000000000000   1.0000000
B2   B   0.277799703242034   0.722222390485845   0.875000000000000   1.0000000
B2   B   0.111152688316428   0.222244195187390   0.875000000000000   1.0000000
B2   B   0.444458112051977   0.222263140882014   0.875000000000000   1.0000000
B2   B   0.611075936941770   0.722153168096580   0.875000000000000   1.0000000
B2   B   0.944416621893940   0.722211179042414   0.875000000000000   1.0000000
B2   B   0.777758855392305   0.222229623968848   0.875000000000000   1.0000000
B2   B   0.111207381977595   0.722112253225651   0.375000000000000   1.0000000
B2   B   0.444710048553662   0.721413764748658   0.375000000000000   1.0000000
B2   B   0.280298197241855   0.223961214603036   0.375000000000000   1.0000000
B2   B   0.776411709264773   0.720321855845240   0.375000000000000   1.0000000
B2   B   0.609983306632936   0.225111291038873   0.375000000000000   1.0000000
B2   B   0.944276788219121   0.222460038511802   0.375000000000000   1.0000000
B2   B   0.111158152119333   0.388918163312598   0.875000000000000   1.0000000
B2   B   0.277786129158118   0.888891388382721   0.875000000000000   1.0000000
B2   B   0.611085003110883   0.888834348875653   0.875000000000000   1.0000000
B2   B   0.444490454321313   0.388941654697246   0.875000000000000   1.0000000
B2   B   0.944421147929486   0.888861815541113   0.875000000000000   1.0000000
B2   B   0.111327101229867   0.888909944363823   0.375000000000000   1.0000000
B2   B   0.777746798556910   0.388919074158457   0.875000000000000   1.0000000
B2   B   0.444449537759381   0.888729306236749   0.375000000000000   1.0000000
B2   B   0.280091267696893   0.388297911711318   0.375000000000000   1.0000000
B2   B   0.277386327091362   0.555233132864931   0.375000000000000   1.0000000
B2   B   0.603459410474748   0.394860449989969   0.375000000000000   1.0000000
B2   B   0.778161882811001   0.888727046631242   0.375000000000000   1.0000000
B2   B   0.943395149568934   0.389089125894731   0.375000000000000   1.0000000
B2   B   0.111133904615461   0.555572975430040   0.875000000000000   1.0000000
B2   B   0.277792383097824   0.055572912953906   0.875000000000000   1.0000000
B2   B   0.777729568018747   0.555560647658578   0.875000000000000   1.0000000
B2   B   0.611089226431295   0.055541362150775   0.875000000000000   1.0000000
B2   B   0.944440394368617   0.055536754073320   0.875000000000000   1.0000000
B2   B   0.055551454800613   0.111133135844222   0.125067769268341   1.0000000
B2   B   0.555591625694469   0.611028266942190   0.126158597844338   1.0000000
B2   B   0.388985714049615   0.111264808671952   0.125099029914391   1.0000000
B2   B   0.888724205348916   0.611027683012409   0.125113193963224   1.0000000
B2   B   0.722224325856169   0.111095963893104   0.125082519963636   1.0000000
B2   B   0.055477297022620   0.777728922447042   0.624936607138431   1.0000000
B2   B   0.388991214240520   0.777691418869249   0.624836061505293   1.0000000
B2   B   0.222322886943435   0.277895850760149   0.624900805098148   1.0000000
B2   B   0.722023462909885   0.777607274519064   0.624809585758302   1.0000000
B2   B   0.555645429033351   0.277972067315223   0.625053814506892   1.0000000
B2   B   0.888880253587258   0.277774008428891   0.624942397938761   1.0000000
B2   B   0.222254041629092   0.777741340596609   0.125059623516498   1.0000000
B2   B   0.055583407334174   0.277801558699135   0.125068745915906   1.0000000
B2   B   0.389047984272629   0.278033171142964   0.125043882626850   1.0000000
B2   B   0.555616536058415   0.777618383657994   0.125238640895310   1.0000000
B2   B   0.888696062012506   0.777666965160328   0.125152058640970   1.0000000
B2   B   0.722212978911665   0.277809800798783   0.125073301380632   1.0000000
B2   B   0.055495857830989   0.944428458524924   0.624930135406398   1.0000000
B2   B   0.388957200894888   0.944458123299595   0.624925637229469   1.0000000
B2   B   0.222326441082818   0.444467945791580   0.624866232999699   1.0000000
B2   B   0.555624420971033   0.444573723144204   0.624321719356613   1.0000000
B2   B   0.722177490494203   0.944353838489270   0.624876862559477   1.0000000
B2   B   0.888826195859669   0.444414479852635   0.624902773669818   1.0000000
B2   B   0.055570796032883   0.444428926494272   0.125079145539524   1.0000000
B2   B   0.222245421910673   0.944478492282587   0.125048388147698   1.0000000
B2   B   0.555601588176819   0.944387853962278   0.125125118077690   1.0000000
B2   B   0.389086156361854   0.444591382692233   0.125098944560914   1.0000000
B2   B   0.888784170488664   0.944370011961622   0.125105977566430   1.0000000
B2   B   0.722090055751285   0.444418074112053   0.124916083255015   1.0000000
B2   B   0.222297060458402   0.611058737933165   0.624892873655520   1.0000000
B2   B   0.055551454800613   0.111133135844222   0.624932230731660   1.0000000
B2   B   0.555591625694469   0.611028266942190   0.623841402155662   1.0000000
B2   B   0.388985714049615   0.111264808671952   0.624900970085609   1.0000000
B2   B   0.888724205348916   0.611027683012409   0.624886806036776   1.0000000
B2   B   0.055518720770292   0.611060972805970   0.125064968249962   1.0000000
B2   B   0.722224325856169   0.111095963893104   0.624917480036364   1.0000000
B2   B   0.222281891213683   0.111217934051362   0.125091084346463   1.0000000
B2   B   0.389057070626129   0.611023642048625   0.125227628081348   1.0000000
B2   B   0.721958192917991   0.610975431763824   0.125011557193528   1.0000000
B2   B   0.555607225143348   0.111170600049600   0.125115051979034   1.0000000
B2   B   0.389057070626129   0.611023642048625   0.624772371918651   1.0000000
B2   B   0.888863316388702   0.111087946225789   0.125054150204428   1.0000000
B2   B   0.222254041629092   0.777741340596609   0.624940376483503   1.0000000
B2   B   0.055583407334174   0.277801558699135   0.624931254084094   1.0000000
B2   B   0.389047984272629   0.278033171142964   0.624956117373149   1.0000000
B2   B   0.555616536058415   0.777618383657994   0.624761359104690   1.0000000
B2   B   0.888696062012506   0.777666965160328   0.624847941359031   1.0000000
B2   B   0.722212978911665   0.277809800798783   0.624926698619368   1.0000000
B2   B   0.055477297022620   0.777728922447042   0.125063392861569   1.0000000
B2   B   0.388991214240520   0.777691418869249   0.125163938494707   1.0000000
B2   B   0.222322886943435   0.277895850760149   0.125099194901852   1.0000000
B2   B   0.722023462909885   0.777607274519064   0.125190414241697   1.0000000
B2   B   0.555645429033351   0.277972067315223   0.124946185493109   1.0000000
B2   B   0.888880253587258   0.277774008428891   0.125057602061240   1.0000000
B2   B   0.055570796032883   0.444428926494272   0.624920854460476   1.0000000
B2   B   0.222245421910673   0.944478492282587   0.624951611852303   1.0000000
B2   B   0.555601588176819   0.944387853962278   0.624874881922311   1.0000000
B2   B   0.389086156361854   0.444591382692233   0.624901055439085   1.0000000
B2   B   0.888784170488664   0.944370011961622   0.624894022433570   1.0000000
B2   B   0.055495857830989   0.944428458524924   0.125069864593601   1.0000000
B2   B   0.722090055751285   0.444418074112053   0.625083916744986   1.0000000
B2   B   0.388957200894888   0.944458123299595   0.125074362770531   1.0000000
B2   B   0.222326441082818   0.444467945791580   0.125133767000301   1.0000000
B2   B   0.222297060458402   0.611058737933165   0.125107126344479   1.0000000
B2   B   0.555624420971033   0.444573723144204   0.125678280643386   1.0000000
B2   B   0.722177490494203   0.944353838489270   0.125123137440524   1.0000000
B2   B   0.888826195859669   0.444414479852635   0.125097226330183   1.0000000
B2   B   0.055518720770292   0.611060972805970   0.624935031750038   1.0000000
B2   B   0.222281891213683   0.111217934051362   0.624908915653537   1.0000000
B2   B   0.721958192917991   0.610975431763824   0.624988442806472   1.0000000
B2   B   0.555607225143348   0.111170600049600   0.624884948020965   1.0000000
B2   B   0.888863316388702   0.111087946225789   0.624945849795572   1.0000000
C2   C   0.554902745066436   0.605622464931921   0.375000000000000   1.0000000


