data_1
_audit_creation_method   'vasp2cif'
_cell_length_a    17.52789999999977
_cell_length_b    17.52789999999977
_cell_length_c    15.0
_cell_angle_alpha    90.0
_cell_angle_beta    90.0
_cell_angle_gamma    119.99999999999916

_symmetry_space_group_name_H-M    'P 1'
loop_
_atom_site_label
_atom_site_type_symbol
_atom_site_fract_x
_atom_site_fract_y
_atom_site_fract_z
_atom_site_occupancy
B2   B   0.904532002437381   0.952019115666041   0.111003378395123   1.0000000
B2   B   0.904589890681301   0.094959127136916   0.111038752512442   1.0000000
B2   B   0.904612939800827   0.238026214904703   0.111041413629148   1.0000000
B2   B   0.904588129112651   0.381059882356147   0.110994922621331   1.0000000
B2   B   0.904537432343261   0.523932780449739   0.110996355385217   1.0000000
B2   B   0.902520115379494   0.666422381440914   0.111046250716128   1.0000000
B2   B   0.902501350628763   0.807518840164488   0.111005442799671   1.0000000
B2   B   0.046488438548997   0.951404693387731   0.111002204589398   1.0000000
B2   B   0.047469410565153   0.095050908200643   0.111004663133920   1.0000000
B2   B   0.047601533105627   0.238054198587586   0.110992120996011   1.0000000
B2   B   0.047592584027871   0.380961042454846   0.111008068125259   1.0000000
B2   B   0.047475021144811   0.523836840911484   0.111005809215118   1.0000000
B2   B   0.046508611888513   0.666519623562991   0.111021100232752   1.0000000
B2   B   0.046677160557587   0.809053342104375   0.110994943368206   1.0000000
B2   B   0.189999761775352   0.952066267619329   0.110996200218635   1.0000000
B2   B   0.189940925485288   0.094746306099037   0.111046559188389   1.0000000
B2   B   0.190646888878456   0.238249257245212   0.110992376667115   1.0000000
B2   B   0.190725314683192   0.381064636938981   0.110991990460244   1.0000000
B2   B   0.190646217572905   0.523810555447699   0.111053309272948   1.0000000
B2   B   0.189958271817879   0.666627793274085   0.111047596690825   1.0000000
B2   B   0.190005528004993   0.809363722757972   0.110994447263070   1.0000000
B2   B   0.333248777854273   0.952331868566992   0.111010823294651   1.0000000
B2   B   0.333271351073513   0.095160662812937   0.111050043619146   1.0000000
B2   B   0.333054327010234   0.237653004760070   0.111033259067276   1.0000000
B2   B   0.334126419311846   0.381134414774807   0.111022352909121   1.0000000
B2   B   0.334131736435932   0.524400213730334   0.111054330026867   1.0000000
B2   B   0.333060854024584   0.666817819759607   0.111053774169586   1.0000000
B2   B   0.333265737197853   0.809539965734938   0.111047479371984   1.0000000
B2   B   0.476375158115103   0.952388830371398   0.111000175131286   1.0000000
B2   B   0.476384461462501   0.095417362627992   0.111000538320176   1.0000000
B2   B   0.476562205704729   0.238416870978230   0.111039409700797   1.0000000
B2   B   0.476199699794170   0.380397041199794   0.111027371164286   1.0000000
B2   B   0.476216784521864   0.667243787464580   0.111102901992967   1.0000000
B2   B   0.476552499180620   0.809588233510265   0.111026572803802   1.0000000
B2   B   0.619238462963867   0.951323334834771   0.111005693197744   1.0000000
B2   B   0.619169126609470   0.095308925936467   0.110998026998350   1.0000000
B2   B   0.619247986614766   0.239366466501555   0.111020481274558   1.0000000
B2   B   0.619431688956540   0.384330784187568   0.111004273315586   1.0000000
B2   B   0.627339906188056   0.536949263358841   0.111029642136436   1.0000000
B2   B   0.627379333492380   0.661794392578144   0.111098480760387   1.0000000
B2   B   0.619421138835743   0.806530943678256   0.111011519223267   1.0000000
B2   B   0.761795777360805   0.951731748126874   0.111004158100567   1.0000000
B2   B   0.761795144603751   0.094977037058884   0.111044804567840   1.0000000
B2   B   0.761796434680354   0.238283388319483   0.111049037223265   1.0000000
B2   B   0.761800275198126   0.381511174470329   0.111010154806266   1.0000000
B2   B   0.762312801381367   0.524267253093907   0.111030347212004   1.0000000
B2   B   0.754557344913585   0.662996558802309   0.111062295919251   1.0000000
B2   B   0.762298415816708   0.809490324869297   0.110994475164946   1.0000000
C2   C   0.474918799256164   0.523175482943632   0.111236564734470   1.0000000
C2   C   0.525162054533018   0.481878367885970   0.111199114919737   1.0000000
C2   C   0.525197050495209   0.614754194727379   0.111293412688889   1.0000000
N2   N   0.950920092381668   0.903262428186414   0.110979951605553   1.0000000
N2   N   0.952257436932862   0.047342295217615   0.111003373086457   1.0000000
N2   N   0.952269653721232   0.190336829141402   0.111016407904400   1.0000000
N2   N   0.952266830129087   0.333364799967171   0.110997155068191   1.0000000
N2   N   0.952263837737019   0.476341534669453   0.110961088662858   1.0000000
N2   N   0.950931792355199   0.619087833335013   0.111012386911311   1.0000000
N2   N   0.951077187258811   0.761255733601497   0.111007668329208   1.0000000
N2   N   0.094530684047054   0.904245863835555   0.110977562985052   1.0000000
N2   N   0.094573147532499   0.046906817912756   0.111003872653371   1.0000000
N2   N   0.095322162577154   0.190477758206827   0.110966195174709   1.0000000
N2   N   0.095368914227280   0.333393485011636   0.110973192391576   1.0000000
N2   N   0.095322673358361   0.476261803222710   0.111008119431351   1.0000000
N2   N   0.094585741372386   0.619092500227630   0.111007042997294   1.0000000
N2   N   0.094536814509370   0.761719246636703   0.110981222913077   1.0000000
N2   N   0.237823423946076   0.904624807926132   0.110976432419073   1.0000000
N2   N   0.237843049298024   0.047387493610012   0.111024101544377   1.0000000
N2   N   0.237820800645249   0.190141571457587   0.111017656397585   1.0000000
N2   N   0.238707500829580   0.333784330698193   0.110967837073790   1.0000000
N2   N   0.238709938554498   0.476334342996223   0.111015068379166   1.0000000
N2   N   0.237828437448132   0.619098213911158   0.111044930757790   1.0000000
N2   N   0.237845232127048   0.761883888926166   0.111012574963080   1.0000000
N2   N   0.380995779756563   0.904773424040329   0.111003753729371   1.0000000
N2   N   0.380998473924174   0.047647074272024   0.111006597588666   1.0000000
N2   N   0.381094815739081   0.190542297827192   0.111039301115777   1.0000000
N2   N   0.381044677068341   0.333027904296216   0.110983653452764   1.0000000
N2   N   0.382347209156526   0.476880466867861   0.111079324262771   1.0000000
N2   N   0.381056947306063   0.619434380629780   0.111030154534748   1.0000000
N2   N   0.381090264181374   0.761978929700251   0.111036401772329   1.0000000
N2   N   0.524005486898217   0.904643677761137   0.110994962925656   1.0000000
N2   N   0.523921405796648   0.047674350458590   0.110962004824647   1.0000000
N2   N   0.524009981938582   0.190803434215405   0.111012137496356   1.0000000
N2   N   0.524151659235678   0.333801460348386   0.110978824121169   1.0000000
N2   N   0.524144817265145   0.761790398622234   0.110996387727578   1.0000000
N2   N   0.666585821912496   0.902690790262513   0.110987599932394   1.0000000
N2   N   0.666564332956540   0.047032670736609   0.110995805264755   1.0000000
N2   N   0.666567203318700   0.190982915579661   0.111007362403801   1.0000000
N2   N   0.666594937595259   0.335341416223424   0.110994196046430   1.0000000
N2   N   0.668123078991833   0.481351664667737   0.110982569088337   1.0000000
N2   N   0.668116220968632   0.758199456156568   0.110984943725325   1.0000000
N2   N   0.809578380341626   0.904458289006944   0.110975750255398   1.0000000
N2   N   0.809282978873478   0.047162532891962   0.111015761086923   1.0000000
N2   N   0.809305328414917   0.190381305836785   0.111040948688624   1.0000000
N2   N   0.809286714170762   0.333570248853571   0.111007388017333   1.0000000
N2   N   0.809582931354804   0.476563572677517   0.110997864880825   1.0000000
N2   N   0.806297304018920   0.618857391214339   0.111036576518936   1.0000000
N2   N   0.806285789316634   0.758875579659610   0.110991183890363   1.0000000


