data_1
_audit_creation_method   'vasp2cif'
_cell_length_a    17.52789999999977
_cell_length_b    17.52789999999977
_cell_length_c    15.0
_cell_angle_alpha    90.0
_cell_angle_beta    90.0
_cell_angle_gamma    119.99999999999916

_symmetry_space_group_name_H-M    'P 1'
loop_
_atom_site_label
_atom_site_type_symbol
_atom_site_fract_x
_atom_site_fract_y
_atom_site_fract_z
_atom_site_occupancy
B2   B   0.905336096166857   0.952806679500758   0.110916777145270   1.0000000
B2   B   0.904824235177386   0.095406654953920   0.110997957438119   1.0000000
B2   B   0.904606815331161   0.238217052488935   0.111124750117998   1.0000000
B2   B   0.904566023584910   0.381114153811660   0.111027114339213   1.0000000
B2   B   0.904909435410875   0.524027613088319   0.110988664104265   1.0000000
B2   B   0.905394776165813   0.667084829069948   0.111093777704612   1.0000000
B2   B   0.905919614022271   0.810275546641977   0.111104145162692   1.0000000
B2   B   0.047930353348859   0.952388982668040   0.111020140300785   1.0000000
B2   B   0.047654392550016   0.095172385409595   0.111009777375828   1.0000000
B2   B   0.047417831675888   0.237953760384562   0.111078449421323   1.0000000
B2   B   0.047440002822214   0.380910659537857   0.111137396071679   1.0000000
B2   B   0.047710494748442   0.523862758282355   0.111058295522896   1.0000000
B2   B   0.047996349659116   0.666742602371009   0.110983488942151   1.0000000
B2   B   0.048118110190169   0.809626308257885   0.111010481615304   1.0000000
B2   B   0.190557121222032   0.952057458496806   0.111099171011547   1.0000000
B2   B   0.190022660587654   0.094485367902899   0.111184308939329   1.0000000
B2   B   0.190136083804036   0.237667676879135   0.111016030380448   1.0000000
B2   B   0.189975590008629   0.380410587559091   0.110965334829450   1.0000000
B2   B   0.190414426801500   0.523636894216170   0.111256291870815   1.0000000
B2   B   0.190816238553608   0.666587820663840   0.111162738520507   1.0000000
B2   B   0.190727104741785   0.809380785024816   0.111001563847614   1.0000000
B2   B   0.333366462875653   0.952034359490662   0.111083242985339   1.0000000
B2   B   0.333066763274461   0.094614305898769   0.111230335253850   1.0000000
B2   B   0.331909245537569   0.236331038403599   0.111097830589759   1.0000000
B2   B   0.332727629340211   0.379535486778152   0.110458693820063   1.0000000
B2   B   0.332468528086930   0.523226503643439   0.110793966888890   1.0000000
B2   B   0.333688232785245   0.666589773153762   0.111359556865636   1.0000000
B2   B   0.333468403405049   0.809317871920765   0.111195435072595   1.0000000
B2   B   0.476153085499988   0.951918011917742   0.111022291280385   1.0000000
B2   B   0.476014719732990   0.094942036476665   0.110986084796476   1.0000000
B2   B   0.475671343016352   0.237805331144393   0.111118900561639   1.0000000
B2   B   0.473256898155879   0.379068593881752   0.110672854752897   1.0000000
B2   B   0.475272156217708   0.665588830927485   0.111147554935982   1.0000000
B2   B   0.476047374737794   0.808638378926649   0.111238572380157   1.0000000
B2   B   0.618971393815482   0.952561165799037   0.110961712124636   1.0000000
B2   B   0.618841854241754   0.095320509196564   0.110903153658994   1.0000000
B2   B   0.618651347386010   0.238260492534673   0.110993959726734   1.0000000
B2   B   0.618205102036870   0.381223831032996   0.110954742469573   1.0000000
B2   B   0.620644683728887   0.525554519427149   0.110863665411479   1.0000000
B2   B   0.625801774237212   0.670624352695761   0.111088135759767   1.0000000
B2   B   0.619474743178968   0.810540723273414   0.111077110473730   1.0000000
B2   B   0.762249486621077   0.952856511772462   0.110893228828630   1.0000000
B2   B   0.761805812872436   0.095439818227833   0.111047001449405   1.0000000
B2   B   0.761624304169244   0.238285530644158   0.111098455496974   1.0000000
B2   B   0.761524941335691   0.381196457003253   0.111029308665852   1.0000000
B2   B   0.762206184193625   0.524239618812673   0.111060222489533   1.0000000
B2   B   0.763885004485454   0.668316704292629   0.111215523796942   1.0000000
B2   B   0.763578636312083   0.810677503957555   0.111056207763469   1.0000000
C2   C   0.471942343821714   0.520134408197099   0.110463140863407   1.0000000
C2   C   0.520899788027063   0.481291594443520   0.110463211708391   1.0000000
N2   N   0.952588740560009   0.904983635994233   0.110975197390564   1.0000000
N2   N   0.952347003678710   0.047674325996848   0.110915722042264   1.0000000
N2   N   0.952252961212058   0.190505048165370   0.111051178694787   1.0000000
N2   N   0.952303731727684   0.333486178079602   0.111058429121663   1.0000000
N2   N   0.952482798861846   0.476403715562604   0.110961100526559   1.0000000
N2   N   0.952607912457373   0.619276030112138   0.110991204753565   1.0000000
N2   N   0.952691514196548   0.762151935637360   0.111055709395860   1.0000000
N2   N   0.095359092825276   0.904652044586692   0.111039260564257   1.0000000
N2   N   0.095028652013212   0.047373274886697   0.111028742231149   1.0000000
N2   N   0.095169686984472   0.190491095974286   0.111052073382311   1.0000000
N2   N   0.095234915851890   0.333334881940397   0.111122787753108   1.0000000
N2   N   0.095593385911152   0.476276695069455   0.111171117998457   1.0000000
N2   N   0.095726730654256   0.619062648896626   0.111012523775571   1.0000000
N2   N   0.095561652711533   0.761850900573310   0.110938673829272   1.0000000
N2   N   0.238258752865000   0.904439016484056   0.111047798391154   1.0000000
N2   N   0.237930012934833   0.047211830216745   0.111176391964181   1.0000000
N2   N   0.237303060059215   0.189757147317440   0.111181272994585   1.0000000
N2   N   0.238217611134631   0.333631381316872   0.110720890439500   1.0000000
N2   N   0.238581773802326   0.476053644538063   0.111033889617448   1.0000000
N2   N   0.239034629587859   0.618854873548552   0.111322720179672   1.0000000
N2   N   0.238554743058019   0.761619691728745   0.111065572378935   1.0000000
N2   N   0.381132406845281   0.904207226217218   0.111091210339557   1.0000000
N2   N   0.380869208110504   0.047183827399950   0.111065271387194   1.0000000
N2   N   0.380438696501671   0.189983750701806   0.111266054301686   1.0000000
N2   N   0.379130100952741   0.331959803836973   0.110653576201007   1.0000000
N2   N   0.382376727270946   0.477802042512896   0.110249388076753   1.0000000
N2   N   0.382777859110078   0.618224000436347   0.111154790684695   1.0000000
N2   N   0.381513759270844   0.761148931748720   0.111327044918428   1.0000000
N2   N   0.523802769911219   0.903517026106184   0.111054973847018   1.0000000
N2   N   0.523662059017701   0.047090961031974   0.110876442570740   1.0000000
N2   N   0.523438369185690   0.190363290612503   0.111014535637700   1.0000000
N2   N   0.522779194959680   0.333536948537899   0.110948258130545   1.0000000
N2   N   0.524260454681228   0.759072735956944   0.111221169081496   1.0000000
N2   N   0.666483761463648   0.904386487125974   0.110913786212224   1.0000000
N2   N   0.666416409793305   0.047377482251025   0.110917408777638   1.0000000
N2   N   0.666321582757352   0.190575257889552   0.110960745133824   1.0000000
N2   N   0.666026842685592   0.333853412546186   0.110995588132187   1.0000000
N2   N   0.666593317561088   0.477386908593366   0.110935496866097   1.0000000
N2   N   0.666958009369166   0.620828212561061   0.111111199772768   1.0000000
N2   N   0.666049286545670   0.761897338177933   0.111074527317419   1.0000000
N2   N   0.809521032236319   0.904875782363097   0.110868573693975   1.0000000
N2   N   0.809357794044188   0.047544422966110   0.110966584279487   1.0000000
N2   N   0.809284827014381   0.190536145294551   0.111152301249529   1.0000000
N2   N   0.809194641886492   0.333597704088176   0.111056656116536   1.0000000
N2   N   0.809443791755103   0.476641986227923   0.111000694404381   1.0000000
N2   N   0.809636976422497   0.619677402829167   0.111144100051791   1.0000000
N2   N   0.810082124976097   0.762725650463199   0.111190763533445   1.0000000


