data_1
_audit_creation_method   'vasp2cif'
_cell_length_a    14.93631414619966
_cell_length_b    14.936314146199727
_cell_length_c    13.341276283792837
_cell_angle_alpha    90.0
_cell_angle_beta    90.0
_cell_angle_gamma    119.99999999999984

_symmetry_space_group_name_H-M    'P 1'
loop_
_atom_site_label
_atom_site_type_symbol
_atom_site_fract_x
_atom_site_fract_y
_atom_site_fract_z
_atom_site_occupancy
Sb2   Sb   0.491985741003786   0.412659537168558   0.375000000000000   1.0000000
N2   N   0.111103007287925   0.055525652651562   0.125123787590639   1.0000000
N2   N   0.611115078389174   0.555589363651010   0.124570997074113   1.0000000
N2   N   0.444444140178100   0.055528097500205   0.125151010792921   1.0000000
N2   N   0.944441793701643   0.555561977674830   0.125209565582342   1.0000000
N2   N   0.777795060291905   0.055564196812621   0.125054657366440   1.0000000
N2   N   0.111109208937566   0.722221271135447   0.624886662971797   1.0000000
N2   N   0.444444140178100   0.722249376011231   0.624848989207080   1.0000000
N2   N   0.277744286683933   0.222178998452739   0.625077764019609   1.0000000
N2   N   0.777776142708468   0.722217420349280   0.624797970030608   1.0000000
N2   N   0.611107182033228   0.222197071370356   0.624941044769957   1.0000000
N2   N   0.944460211747266   0.222238837168185   0.624900550767333   1.0000000
N2   N   0.277776599879170   0.722234697368764   0.125132527813492   1.0000000
N2   N   0.111119562880091   0.222226448106710   0.125120172271052   1.0000000
N2   N   0.444444579385393   0.222191136156143   0.125009255010877   1.0000000
N2   N   0.611107182033228   0.722243443996201   0.125058955230042   1.0000000
N2   N   0.944441793701643   0.722213149360148   0.125209565582342   1.0000000
N2   N   0.777787498486300   0.222229237015728   0.125099260970344   1.0000000
N2   N   0.111107861134843   0.888868327025869   0.624871798186594   1.0000000
N2   N   0.444448837370606   0.888891085351967   0.624893330210313   1.0000000
N2   N   0.277744286683933   0.388898621564523   0.625077764019609   1.0000000
N2   N   0.611115078389174   0.388859048071492   0.625429002925888   1.0000000
N2   N   0.777787498486300   0.888891594803901   0.624900739029656   1.0000000
N2   N   0.944447817517169   0.388906288713487   0.624858420127989   1.0000000
N2   N   0.111103007287925   0.388910687969692   0.125123787590639   1.0000000
N2   N   0.277776599879170   0.888875235843734   0.125132527813492   1.0000000
N2   N   0.611119425992384   0.888904430348206   0.125079904528386   1.0000000
N2   N   0.444374506473549   0.388853919903439   0.125418214089297   1.0000000
N2   N   0.944447817517169   0.888874862137010   0.125141579872012   1.0000000
N2   N   0.777776142708468   0.388892055692519   0.125202029969392   1.0000000
N2   N   0.277773252231736   0.555581924552797   0.624836400690169   1.0000000
N2   N   0.111103007287925   0.055525652651562   0.624876212409361   1.0000000
N2   N   0.611115078389174   0.555589363651010   0.625429002925888   1.0000000
N2   N   0.444444140178100   0.055528097500205   0.624848989207080   1.0000000
N2   N   0.944441793701643   0.555561977674830   0.624790434417658   1.0000000
N2   N   0.111107861134843   0.555572867442303   0.125128201813406   1.0000000
N2   N   0.777795060291905   0.055564196812621   0.624945342633560   1.0000000
N2   N   0.277773252231736   0.055524661012274   0.125163599309831   1.0000000
N2   N   0.444444579385393   0.555586776562586   0.125009255010877   1.0000000
N2   N   0.777762973190096   0.555548153261715   0.125254741697617   1.0000000
N2   N   0.611119425992384   0.055548328977505   0.125079904528386   1.0000000
N2   N   0.444444579385393   0.555586776562586   0.624990744989124   1.0000000
N2   N   0.944460211747266   0.055554707912417   0.125099449232667   1.0000000
N2   N   0.277776599879170   0.722234697368764   0.624867472186508   1.0000000
N2   N   0.111119562880091   0.222226448106710   0.624879827728948   1.0000000
N2   N   0.444444579385393   0.222191136156143   0.624990744989124   1.0000000
N2   N   0.611107182033228   0.722243443996201   0.624941044769957   1.0000000
N2   N   0.944441793701643   0.722213149360148   0.624790434417658   1.0000000
N2   N   0.777787498486300   0.222229237015728   0.624900739029656   1.0000000
N2   N   0.111109208937566   0.722221271135447   0.125113337028203   1.0000000
N2   N   0.444444140178100   0.722249376011231   0.125151010792921   1.0000000
N2   N   0.277744286683933   0.222178998452739   0.124922235980391   1.0000000
N2   N   0.777776142708468   0.722217420349280   0.125202029969392   1.0000000
N2   N   0.611107182033228   0.222197071370356   0.125058955230042   1.0000000
N2   N   0.944460211747266   0.222238837168185   0.125099449232667   1.0000000
N2   N   0.111103007287925   0.388910687969692   0.624876212409361   1.0000000
N2   N   0.277776599879170   0.888875235843734   0.624867472186508   1.0000000
N2   N   0.611119425992384   0.888904430348206   0.624920095471614   1.0000000
N2   N   0.444374506473549   0.388853919903439   0.624581785910703   1.0000000
N2   N   0.944447817517169   0.888874862137010   0.624858420127989   1.0000000
N2   N   0.111107861134843   0.888868327025869   0.125128201813406   1.0000000
N2   N   0.777776142708468   0.388892055692519   0.624797970030608   1.0000000
N2   N   0.444448837370606   0.888891085351967   0.125106669789685   1.0000000
N2   N   0.277744286683933   0.388898621564523   0.124922235980391   1.0000000
N2   N   0.277773252231736   0.555581924552797   0.125163599309831   1.0000000
N2   N   0.611115078389174   0.388859048071492   0.124570997074113   1.0000000
N2   N   0.777787498486300   0.888891594803901   0.125099260970344   1.0000000
N2   N   0.944447817517169   0.388906288713487   0.125141579872012   1.0000000
N2   N   0.111107861134843   0.555572867442303   0.624871798186594   1.0000000
N2   N   0.277773252231736   0.055524661012274   0.624836400690169   1.0000000
N2   N   0.777762973190096   0.555548153261715   0.624745258302382   1.0000000
N2   N   0.611119425992384   0.055548328977505   0.624920095471614   1.0000000
N2   N   0.944460211747266   0.055554707912417   0.624900550767333   1.0000000
N2   N   0.057045534962174   0.112055376380462   0.375000000000000   1.0000000
N2   N   0.554179056551976   0.620279358219388   0.375000000000000   1.0000000
N2   N   0.386269932877210   0.103416780013701   0.375000000000000   1.0000000
N2   N   0.885068558281690   0.609200945807516   0.375000000000000   1.0000000
N2   N   0.722972931379555   0.110492719646799   0.375000000000000   1.0000000
N2   N   0.055555900521692   0.777780624885024   0.875000000000000   1.0000000
N2   N   0.388899593953711   0.777781195372418   0.875000000000000   1.0000000
N2   N   0.222225656589121   0.277779494961228   0.875000000000000   1.0000000
N2   N   0.722227541201262   0.777781278331759   0.875000000000000   1.0000000
N2   N   0.555560729113184   0.277781681407796   0.875000000000000   1.0000000
N2   N   0.888894031661790   0.277778694863009   0.875000000000000   1.0000000
N2   N   0.219140715034524   0.776237024183929   0.375000000000000   1.0000000
N2   N   0.057045534962174   0.278323491915047   0.375000000000000   1.0000000
N2   N   0.388003655955181   0.266428246165140   0.375000000000000   1.0000000
N2   N   0.554789940564766   0.781795341572000   0.375000000000000   1.0000000
N2   N   0.887844619235840   0.778024083999371   0.375000000000000   1.0000000
N2   N   0.722633186677571   0.275423178993725   0.375000000000000   1.0000000
N2   N   0.055556589101283   0.944448057686957   0.875000000000000   1.0000000
N2   N   0.388899593953711   0.944451731914629   0.875000000000000   1.0000000
N2   N   0.222224755493772   0.444441983660158   0.875000000000000   1.0000000
N2   N   0.555556975501606   0.444445154417467   0.875000000000000   1.0000000
N2   N   0.722226616411047   0.944447313280560   0.875000000000000   1.0000000
N2   N   0.888892165581024   0.444443121446490   0.875000000000000   1.0000000
N2   N   0.054691285032419   0.444161477479211   0.375000000000000   1.0000000
N2   N   0.219410973156673   0.941524357905521   0.375000000000000   1.0000000
N2   N   0.554871269525432   0.944102301429381   0.375000000000000   1.0000000
N2   N   0.388003655955181   0.454908743123377   0.375000000000000   1.0000000
N2   N   0.889756016474023   0.945727683984348   0.375000000000000   1.0000000
N2   N   0.720616937888787   0.441686207457443   0.375000000000000   1.0000000
N2   N   0.222226897966054   0.611108598142064   0.875000000000000   1.0000000
N2   N   0.055557537156543   0.111112892654099   0.875000000000000   1.0000000
N2   N   0.555560729113184   0.611112381038724   0.875000000000000   1.0000000
N2   N   0.388898160522038   0.111120651437584   0.875000000000000   1.0000000
N2   N   0.888888976373575   0.611111154853458   0.875000000000000   1.0000000
N2   N   0.052468784979354   0.609867526119417   0.375000000000000   1.0000000
N2   N   0.722226616411047   0.111112636463822   0.875000000000000   1.0000000
N2   N   0.221642166752578   0.109277792913567   0.375000000000000   1.0000000
N2   N   0.386269932877210   0.616186486196851   0.375000000000000   1.0000000
N2   N   0.720616937888787   0.612264063764679   0.375000000000000   1.0000000
N2   N   0.554789940564766   0.106327932326101   0.375000000000000   1.0000000
N2   N   0.388898160522038   0.611110842417797   0.875000000000000   1.0000000
N2   N   0.890268297929325   0.111800815631333   0.375000000000000   1.0000000
N2   N   0.222227869303710   0.777780601318523   0.875000000000000   1.0000000
N2   N   0.055557537156543   0.277777977835780   0.875000000000000   1.0000000
N2   N   0.388897141508738   0.277784881452845   0.875000000000000   1.0000000
N2   N   0.555563232315530   0.777781227391982   0.875000000000000   1.0000000
N2   N   0.888892165581024   0.777782377467869   0.875000000000000   1.0000000
N2   N   0.722227541201262   0.277779596202839   0.875000000000000   1.0000000
N2   N   0.052468784979354   0.775934592193274   0.375000000000000   1.0000000
N2   N   0.386601739446808   0.778596307198975   0.375000000000000   1.0000000
N2   N   0.225238443782175   0.279285888557755   0.375000000000000   1.0000000
N2   N   0.722633186677571   0.780543341017183   0.375000000000000   1.0000000
N2   N   0.554179056551976   0.267233031665923   0.375000000000000   1.0000000
N2   N   0.889756016474023   0.277361665823011   0.375000000000000   1.0000000
N2   N   0.055556589101283   0.444441864747653   0.875000000000000   1.0000000
N2   N   0.222226897966054   0.944451633157326   0.875000000000000   1.0000000
N2   N   0.555562403132367   0.944447868232850   0.875000000000000   1.0000000
N2   N   0.388897141508738   0.444445593389229   0.875000000000000   1.0000000
N2   N   0.888894031661790   0.944448670132117   0.875000000000000   1.0000000
N2   N   0.054691285032419   0.943863140886538   0.375000000000000   1.0000000
N2   N   0.722225107173859   0.444445538263698   0.875000000000000   1.0000000
N2   N   0.386601739446808   0.941338765581168   0.375000000000000   1.0000000
N2   N   0.221642166752578   0.445697707172347   0.375000000000000   1.0000000
N2   N   0.219410973156673   0.611219948584486   0.375000000000000   1.0000000
N2   N   0.722972931379555   0.945813545066092   0.375000000000000   1.0000000
N2   N   0.887844619235840   0.443153868569804   0.375000000000000   1.0000000
N2   N   0.055555900521692   0.611108608970003   0.875000000000000   1.0000000
N2   N   0.222224755493772   0.111116105166950   0.875000000000000   1.0000000
N2   N   0.722225107173859   0.611112902243497   0.875000000000000   1.0000000
N2   N   0.555563232315530   0.111115338256884   0.875000000000000   1.0000000
N2   N   0.888893098204949   0.111113215769146   0.875000000000000   1.0000000
B2   B   0.110754924265279   0.054871885582761   0.375000000000000   1.0000000
B2   B   0.614253036466285   0.573539640010302   0.375000000000000   1.0000000
B2   B   0.443358245885612   0.050531551354729   0.375000000000000   1.0000000
B2   B   0.941866547397847   0.554200837505732   0.375000000000000   1.0000000
B2   B   0.779346140799140   0.056339737066238   0.375000000000000   1.0000000
B2   B   0.111122319891462   0.722227826612396   0.875000000000000   1.0000000
B2   B   0.444449149418272   0.722247413554581   0.875000000000000   1.0000000
B2   B   0.277727990970804   0.222190255557969   0.875000000000000   1.0000000
B2   B   0.777814978296750   0.722272718315644   0.875000000000000   1.0000000
B2   B   0.611133395281818   0.222192487733704   0.875000000000000   1.0000000
B2   B   0.944444117516641   0.222212296175943   0.875000000000000   1.0000000
B2   B   0.275315722367339   0.721995750934781   0.375000000000000   1.0000000
B2   B   0.113173286445528   0.223253309889428   0.375000000000000   1.0000000
B2   B   0.441919035647633   0.211222488683520   0.375000000000000   1.0000000
B2   B   0.612232649376078   0.730386301121484   0.375000000000000   1.0000000
B2   B   0.941866547397847   0.720999043225450   0.375000000000000   1.0000000
B2   B   0.779170074626960   0.220976694309065   0.375000000000000   1.0000000
B2   B   0.111112281486103   0.888895218893395   0.875000000000000   1.0000000
B2   B   0.444454522934950   0.888893928134140   0.875000000000000   1.0000000
B2   B   0.277727990970804   0.388871068746163   0.875000000000000   1.0000000
B2   B   0.611136024903439   0.388873080692866   0.875000000000000   1.0000000
B2   B   0.777802051629380   0.888929919213271   0.875000000000000   1.0000000
B2   B   0.944459456880286   0.388875598956271   0.875000000000000   1.0000000
B2   B   0.110754924265279   0.389216372015847   0.375000000000000   1.0000000
B2   B   0.275315722367339   0.886653304765887   0.375000000000000   1.0000000
B2   B   0.611895275766469   0.891554734487453   0.375000000000000   1.0000000
B2   B   0.944179813571155   0.889427207224554   0.375000000000000   1.0000000
B2   B   0.778043090348096   0.386295883821349   0.375000000000000   1.0000000
B2   B   0.277758186394475   0.555555548008301   0.875000000000000   1.0000000
B2   B   0.111088920964987   0.055547649795701   0.875000000000000   1.0000000
B2   B   0.611136024903439   0.555596277543901   0.875000000000000   1.0000000
B2   B   0.444449149418272   0.055535069197025   0.875000000000000   1.0000000
B2   B   0.944472538765186   0.555557966810802   0.875000000000000   1.0000000
B2   B   0.108637149318681   0.555022111045397   0.375000000000000   1.0000000
B2   B   0.777793888317825   0.055563610825580   0.875000000000000   1.0000000
B2   B   0.275236907239705   0.051649668781894   0.375000000000000   1.0000000
B2   B   0.441919035647633   0.564029880297448   0.375000000000000   1.0000000
B2   B   0.774747493882778   0.554040413608057   0.375000000000000   1.0000000
B2   B   0.611895275766469   0.053673874612344   0.375000000000000   1.0000000
B2   B   0.444432571240141   0.555579584471232   0.875000000000000   1.0000000
B2   B   0.945975551791117   0.056778164036133   0.375000000000000   1.0000000
B2   B   0.277779229813611   0.722227043232459   0.875000000000000   1.0000000
B2   B   0.111076138420412   0.222204735876870   0.875000000000000   1.0000000
B2   B   0.444432571240141   0.222186320102246   0.875000000000000   1.0000000
B2   B   0.611133395281818   0.722274240881444   0.875000000000000   1.0000000
B2   B   0.944472538765186   0.722247905287719   0.875000000000000   1.0000000
B2   B   0.777802051629380   0.222205465749439   0.875000000000000   1.0000000
B2   B   0.108199226702175   0.720766280017751   0.375000000000000   1.0000000
B2   B   0.443358245885612   0.726160027864220   0.375000000000000   1.0000000
B2   B   0.277716504854680   0.220201225202419   0.375000000000000   1.0000000
B2   B   0.778043090348096   0.725080539860076   0.375000000000000   1.0000000
B2   B   0.612232649376078   0.215179681587922   0.375000000000000   1.0000000
B2   B   0.945975551791117   0.222530721088319   0.375000000000000   1.0000000
B2   B   0.111088920964987   0.388874604502615   0.875000000000000   1.0000000
B2   B   0.277779229813611   0.888885519914481   0.875000000000000   1.0000000
B2   B   0.611129313123768   0.888916292891579   0.875000000000000   1.0000000
B2   B   0.444414556005160   0.388873944669244   0.875000000000000   1.0000000
B2   B   0.944459456880286   0.888917191257344   0.875000000000000   1.0000000
B2   B   0.108637149318681   0.886948371606612   0.375000000000000   1.0000000
B2   B   0.777814978296750   0.388875593314435   0.875000000000000   1.0000000
B2   B   0.443470557217887   0.888401945275608   0.375000000000000   1.0000000
B2   B   0.277716504854680   0.390848612985589   0.375000000000000   1.0000000
B2   B   0.275236907239705   0.556920571791147   0.375000000000000   1.0000000
B2   B   0.614253036466285   0.374046729789311   0.375000000000000   1.0000000
B2   B   0.779170074626960   0.891526713651224   0.375000000000000   1.0000000
B2   B   0.944179813571155   0.388085939679930   0.375000000000000   1.0000000
B2   B   0.111112281486103   0.555550395926038   0.875000000000000   1.0000000
B2   B   0.277758186394475   0.055535971719509   0.875000000000000   1.0000000
B2   B   0.777819179098329   0.555576256215833   0.875000000000000   1.0000000
B2   B   0.611129313123768   0.055546353565518   0.875000000000000   1.0000000
B2   B   0.944444117516641   0.055565154674034   0.875000000000000   1.0000000
B2   B   0.055534032010913   0.111081523420794   0.124940211046227   1.0000000
B2   B   0.555535982675093   0.611277570687693   0.124264232021634   1.0000000
B2   B   0.388787800858960   0.110896649366591   0.124818456519462   1.0000000
B2   B   0.889038278174807   0.611185805754075   0.124916940223109   1.0000000
B2   B   0.722245798802034   0.111083790251800   0.124867208344060   1.0000000
B2   B   0.055618510612558   0.777796733503131   0.625065767967002   1.0000000
B2   B   0.388843471305335   0.777816811166897   0.625079219219664   1.0000000
B2   B   0.222099945371595   0.277716639352466   0.625273929375065   1.0000000
B2   B   0.722285091348915   0.777901166843559   0.625235336087131   1.0000000
B2   B   0.555535982675093   0.277591745320736   0.625735767978366   1.0000000
B2   B   0.888935593979008   0.277781965298317   0.625090617825678   1.0000000
B2   B   0.222215830547824   0.777774581940580   0.124930774162056   1.0000000
B2   B   0.055534032010913   0.277785841923455   0.124940211046227   1.0000000
B2   B   0.388633218174045   0.277434802903279   0.124513484195106   1.0000000
B2   B   0.555530282142164   0.777884695088181   0.124818694412200   1.0000000
B2   B   0.888999554145037   0.777857229736853   0.124913969557604   1.0000000
B2   B   0.722285091348915   0.277717257838690   0.124764663912869   1.0000000
B2   B   0.055567412576828   0.944419010085856   0.625056981255701   1.0000000
B2   B   0.388843471305335   0.944359993471774   0.625079219219664   1.0000000
B2   B   0.222116128625155   0.444491126397638   0.625150206050907   1.0000000
B2   B   0.555694972816975   0.444514153075152   0.626006410012707   1.0000000
B2   B   0.722245798802034   0.944495341883569   0.625132791655939   1.0000000
B2   B   0.888999554145037   0.444475657741520   0.625086030442397   1.0000000
B2   B   0.055567412576828   0.444481735824301   0.124943018744299   1.0000000
B2   B   0.222188621083051   0.944358136610699   0.124947590516774   1.0000000
B2   B   0.555540315141265   0.944436824237297   0.124881641131328   1.0000000
B2   B   0.388633218174045   0.444531748604102   0.124513484195106   1.0000000
B2   B   0.888935593979008   0.944486962014026   0.124909382174322   1.0000000
B2   B   0.722384454854409   0.444472249491604   0.124454975203877   1.0000000
B2   B   0.222188621083051   0.611163817805688   0.625052409483226   1.0000000
B2   B   0.055534032010913   0.111081523420794   0.625059788953772   1.0000000
B2   B   0.555535982675093   0.611277570687693   0.625735767978366   1.0000000
B2   B   0.388787800858960   0.110896649366591   0.625181543480537   1.0000000
B2   B   0.889038278174807   0.611185805754075   0.625083059776890   1.0000000
B2   B   0.055618510612558   0.611155110442763   0.124934232032999   1.0000000
B2   B   0.722245798802034   0.111083790251800   0.625132791655939   1.0000000
B2   B   0.222116128625155   0.110958335560852   0.124849793949093   1.0000000
B2   B   0.388787800858960   0.611224484825712   0.124818456519462   1.0000000
B2   B   0.722384454854409   0.611245538696140   0.124454975203877   1.0000000
B2   B   0.555530282142164   0.110978920387319   0.124818694412200   1.0000000
B2   B   0.388787800858960   0.611224484825712   0.625181543480537   1.0000000
B2   B   0.888912915511476   0.111123124422409   0.124909873349479   1.0000000
B2   B   0.222215830547824   0.777774581940580   0.625069225837944   1.0000000
B2   B   0.055534032010913   0.277785841923455   0.625059788953772   1.0000000
B2   B   0.388633218174045   0.277434802903279   0.625486515804895   1.0000000
B2   B   0.555530282142164   0.777884695088181   0.625181305587800   1.0000000
B2   B   0.888999554145037   0.777857229736853   0.625086030442397   1.0000000
B2   B   0.722285091348915   0.277717257838690   0.625235336087131   1.0000000
B2   B   0.055618510612558   0.777796733503131   0.124934232032999   1.0000000
B2   B   0.388843471305335   0.777816811166897   0.124920780780336   1.0000000
B2   B   0.222099945371595   0.277716639352466   0.124726070624935   1.0000000
B2   B   0.722285091348915   0.777901166843559   0.124764663912869   1.0000000
B2   B   0.555535982675093   0.277591745320736   0.124264232021634   1.0000000
B2   B   0.888935593979008   0.277781965298317   0.124909382174322   1.0000000
B2   B   0.055567412576828   0.444481735824301   0.625056981255701   1.0000000
B2   B   0.222188621083051   0.944358136610699   0.625052409483226   1.0000000
B2   B   0.555540315141265   0.944436824237297   0.625118358868672   1.0000000
B2   B   0.388633218174045   0.444531748604102   0.625486515804895   1.0000000
B2   B   0.888935593979008   0.944486962014026   0.625090617825678   1.0000000
B2   B   0.055567412576828   0.944419010085856   0.124943018744299   1.0000000
B2   B   0.722384454854409   0.444472249491604   0.625545024796124   1.0000000
B2   B   0.388843471305335   0.944359993471774   0.124920780780336   1.0000000
B2   B   0.222116128625155   0.444491126397638   0.124849793949093   1.0000000
B2   B   0.222188621083051   0.611163817805688   0.124947590516774   1.0000000
B2   B   0.555694972816975   0.444514153075152   0.123993589987293   1.0000000
B2   B   0.722245798802034   0.944495341883569   0.124867208344060   1.0000000
B2   B   0.888999554145037   0.444475657741520   0.124913969557604   1.0000000
B2   B   0.055618510612558   0.611155110442763   0.625065767967002   1.0000000
B2   B   0.222116128625155   0.110958335560852   0.625150206050907   1.0000000
B2   B   0.722384454854409   0.611245538696140   0.625545024796124   1.0000000
B2   B   0.555530282142164   0.110978920387319   0.625181305587800   1.0000000
B2   B   0.888912915511476   0.111123124422409   0.625090126650522   1.0000000


