data_1
_audit_creation_method   'vasp2cif'
_cell_length_a    14.93631414619966
_cell_length_b    14.936314146199727
_cell_length_c    13.341276283792837
_cell_angle_alpha    90.0
_cell_angle_beta    90.0
_cell_angle_gamma    119.99999999999984

_symmetry_space_group_name_H-M    'P 1'
loop_
_atom_site_label
_atom_site_type_symbol
_atom_site_fract_x
_atom_site_fract_y
_atom_site_fract_z
_atom_site_occupancy
C2   C   0.715058139580143   0.607385003411924   0.375000000000000   1.0000000
C2   C   0.605434160895052   0.554780018285305   0.375000000000000   1.0000000
C2   C   0.440510283511267   0.388206404080453   0.375000000000000   1.0000000
C2   C   0.552315828062781   0.446431126169464   0.375000000000000   1.0000000
N2   N   0.111139899072258   0.055565683022511   0.125290335396538   1.0000000
N2   N   0.611082276856875   0.555594751008455   0.124868038219875   1.0000000
N2   N   0.444443240540128   0.055592182930092   0.125335081694637   1.0000000
N2   N   0.944442912958995   0.555575891457504   0.125395270801045   1.0000000
N2   N   0.777781949021999   0.055569786177073   0.125215547456776   1.0000000
N2   N   0.111096834621062   0.722236909668306   0.624713847726507   1.0000000
N2   N   0.444426314004105   0.722237357267593   0.624621264154151   1.0000000
N2   N   0.277812564088817   0.222253927229808   0.624373800809843   1.0000000
N2   N   0.777766103819506   0.722242684844678   0.624238995913661   1.0000000
N2   N   0.611110845818451   0.222260831836858   0.624568178539325   1.0000000
N2   N   0.944470083551601   0.222246944912351   0.624801699544398   1.0000000
N2   N   0.277767241367344   0.722253190883993   0.125240681159200   1.0000000
N2   N   0.111161088632623   0.222246645957840   0.125324699070853   1.0000000
N2   N   0.444464966642780   0.222298991732752   0.125816895738523   1.0000000
N2   N   0.611098228364357   0.722216905004757   0.125551413482125   1.0000000
N2   N   0.944408409037232   0.722214431861020   0.125626922424905   1.0000000
N2   N   0.777782886576908   0.222246340878172   0.125202973361577   1.0000000
N2   N   0.111111008128250   0.888889643105649   0.624663775999498   1.0000000
N2   N   0.444430182186035   0.888912147747934   0.624766964834348   1.0000000
N2   N   0.277824815514879   0.388935245870801   0.624358223743167   1.0000000
N2   N   0.611133535060935   0.388957757954286   0.624128753177727   1.0000000
N2   N   0.777778695221485   0.888897036318322   0.624630939435016   1.0000000
N2   N   0.944456721281465   0.388921328566311   0.624787371981310   1.0000000
N2   N   0.111135706911263   0.388929959042597   0.125274649537436   1.0000000
N2   N   0.277780626096303   0.888911426033753   0.125243413139635   1.0000000
N2   N   0.611096037181125   0.888891159339644   0.125340075428297   1.0000000
N2   N   0.444455924152865   0.388938401883984   0.125700012144102   1.0000000
N2   N   0.944462145943615   0.888900095663169   0.125365838398627   1.0000000
N2   N   0.777792900071486   0.388909034282922   0.125366913242938   1.0000000
N2   N   0.277782606320353   0.555586044792286   0.624620329979394   1.0000000
N2   N   0.111139899072258   0.055565683022511   0.624709664603463   1.0000000
N2   N   0.611082276856875   0.555594751008455   0.625131961780125   1.0000000
N2   N   0.444443240540128   0.055592182930092   0.624664918305363   1.0000000
N2   N   0.944442912958994   0.555575891457504   0.624604729198955   1.0000000
N2   N   0.111115689687835   0.555590446757394   0.125228623747632   1.0000000
N2   N   0.777781949021999   0.055569786177073   0.624784452543224   1.0000000
N2   N   0.277799023739965   0.055580395926862   0.125424291265111   1.0000000
N2   N   0.444433506015917   0.555566032093259   0.125626598988151   1.0000000
N2   N   0.777759922499925   0.555559066352590   0.125934241892571   1.0000000
N2   N   0.611094428927114   0.055574471746330   0.125235072347140   1.0000000
N2   N   0.444433506015917   0.555566032093259   0.624373401011849   1.0000000
N2   N   0.944472216814699   0.055557556362201   0.125250301407516   1.0000000
N2   N   0.277767241367344   0.722253190883993   0.624759318840800   1.0000000
N2   N   0.111161088632623   0.222246645957840   0.624675300929147   1.0000000
N2   N   0.444464966642780   0.222298991732752   0.624183104261477   1.0000000
N2   N   0.611098228364357   0.722216905004757   0.624448586517874   1.0000000
N2   N   0.944408409037232   0.722214431861020   0.624373077575095   1.0000000
N2   N   0.777782886576908   0.222246340878172   0.624797026638423   1.0000000
N2   N   0.111096834621062   0.722236909668306   0.125286152273494   1.0000000
N2   N   0.444426314004105   0.722237357267593   0.125378735845848   1.0000000
N2   N   0.277812564088817   0.222253927229808   0.125626199190157   1.0000000
N2   N   0.777766103819506   0.722242684844678   0.125761004086339   1.0000000
N2   N   0.611110845818451   0.222260831836858   0.125431821460676   1.0000000
N2   N   0.944470083551601   0.222246944912351   0.125198300455602   1.0000000
N2   N   0.111135706911263   0.388929959042597   0.624725350462564   1.0000000
N2   N   0.277780626096303   0.888911426033753   0.624756586860366   1.0000000
N2   N   0.611096037181125   0.888891159339644   0.624659924571703   1.0000000
N2   N   0.444455924152865   0.388938401883984   0.624299987855898   1.0000000
N2   N   0.944462145943615   0.888900095663169   0.624634161601373   1.0000000
N2   N   0.111111008128250   0.888889643105649   0.125336224000502   1.0000000
N2   N   0.777792900071486   0.388909034282921   0.624633086757062   1.0000000
N2   N   0.444430182186035   0.888912147747934   0.125233035165653   1.0000000
N2   N   0.277824815514879   0.388935245870801   0.125641776256832   1.0000000
N2   N   0.277782606320353   0.555586044792286   0.125379670020606   1.0000000
N2   N   0.611133535060935   0.388957757954286   0.125871246822274   1.0000000
N2   N   0.777778695221485   0.888897036318322   0.125369060564983   1.0000000
N2   N   0.944456721281465   0.388921328566311   0.125212628018690   1.0000000
N2   N   0.111115689687835   0.555590446757394   0.624771376252369   1.0000000
N2   N   0.277799023739965   0.055580395926862   0.624575708734890   1.0000000
N2   N   0.777759922499925   0.555559066352590   0.624065758107428   1.0000000
N2   N   0.611094428927114   0.055574471746330   0.624764927652860   1.0000000
N2   N   0.944472216814699   0.055557556362201   0.624749698592483   1.0000000
N2   N   0.055739538940287   0.111279090266971   0.375000000000000   1.0000000
N2   N   0.555177261462710   0.609923708671525   0.375000000000000   1.0000000
N2   N   0.389670165746078   0.113753753049403   0.375000000000000   1.0000000
N2   N   0.888031753250926   0.609762405582175   0.375000000000000   1.0000000
N2   N   0.722186775050138   0.110686240551444   0.375000000000000   1.0000000
N2   N   0.055567137412814   0.777773924466558   0.875000000000000   1.0000000
N2   N   0.388917187377199   0.777779141860638   0.875000000000000   1.0000000
N2   N   0.222242170505006   0.277779962138410   0.875000000000000   1.0000000
N2   N   0.722244436540454   0.777782395733468   0.875000000000000   1.0000000
N2   N   0.555577840089670   0.277786311562252   0.875000000000000   1.0000000
N2   N   0.888908187235822   0.277782094485591   0.875000000000000   1.0000000
N2   N   0.222202458768732   0.777960950160865   0.375000000000000   1.0000000
N2   N   0.055779992366890   0.277767796588058   0.375000000000000   1.0000000
N2   N   0.390780788556116   0.283819876467636   0.375000000000000   1.0000000
N2   N   0.555357382562147   0.776960318832581   0.375000000000000   1.0000000
N2   N   0.888579543964933   0.778415201936871   0.375000000000000   1.0000000
N2   N   0.722613623615436   0.276352973627972   0.375000000000000   1.0000000
N2   N   0.055577689673911   0.944450310192091   0.875000000000000   1.0000000
N2   N   0.388917169474042   0.944454472636261   0.875000000000000   1.0000000
N2   N   0.222250459296035   0.444445229718518   0.875000000000000   1.0000000
N2   N   0.555569903900834   0.444443648226063   0.875000000000000   1.0000000
N2   N   0.722243503417426   0.944443101179964   0.875000000000000   1.0000000
N2   N   0.888910759299126   0.444442742431040   0.875000000000000   1.0000000
N2   N   0.056311571353874   0.444334624465686   0.375000000000000   1.0000000
N2   N   0.222538533041899   0.945344071394507   0.375000000000000   1.0000000
N2   N   0.555362047736049   0.944008562094443   0.375000000000000   1.0000000
N2   N   0.389413406175711   0.441261798048400   0.375000000000000   1.0000000
N2   N   0.889039926351929   0.944864581028822   0.375000000000000   1.0000000
N2   N   0.723333061480315   0.441381281587211   0.375000000000000   1.0000000
N2   N   0.222249381241022   0.611110005199559   0.875000000000000   1.0000000
N2   N   0.055577597805915   0.111112096011211   0.875000000000000   1.0000000
N2   N   0.555572262235099   0.611104973745879   0.875000000000000   1.0000000
N2   N   0.388918783078453   0.111123710110657   0.875000000000000   1.0000000
N2   N   0.888901107494984   0.611103477875506   0.875000000000000   1.0000000
N2   N   0.055879321708453   0.610949580610440   0.375000000000000   1.0000000
N2   N   0.722241364422186   0.111112076754094   0.875000000000000   1.0000000
N2   N   0.223441214350143   0.112871357887090   0.375000000000000   1.0000000
N2   N   0.389247893700029   0.609738061467211   0.375000000000000   1.0000000
N2   N   0.555571447434851   0.110813551251320   0.375000000000000   1.0000000
N2   N   0.388915255893001   0.611109564578728   0.875000000000000   1.0000000
N2   N   0.889046421084050   0.111087959914628   0.375000000000000   1.0000000
N2   N   0.222241995422379   0.777780295556618   0.875000000000000   1.0000000
N2   N   0.055580354736038   0.277779472500956   0.875000000000000   1.0000000
N2   N   0.388917160848362   0.277788274226094   0.875000000000000   1.0000000
N2   N   0.555578050130255   0.777774673605461   0.875000000000000   1.0000000
N2   N   0.888900962640344   0.777774701626718   0.875000000000000   1.0000000
N2   N   0.722241098745729   0.277776619996162   0.875000000000000   1.0000000
N2   N   0.054795917831129   0.777543527225727   0.375000000000000   1.0000000
N2   N   0.388984278432783   0.777415339810287   0.375000000000000   1.0000000
N2   N   0.221794511321013   0.277684782818425   0.375000000000000   1.0000000
N2   N   0.722266985808999   0.779665741571950   0.375000000000000   1.0000000
N2   N   0.556569297702554   0.277904445469043   0.375000000000000   1.0000000
N2   N   0.889301665599367   0.277451353764259   0.375000000000000   1.0000000
N2   N   0.055577710618999   0.444445563547370   0.875000000000000   1.0000000
N2   N   0.222243815823621   0.944451766701692   0.875000000000000   1.0000000
N2   N   0.555579076813251   0.944444995201139   0.875000000000000   1.0000000
N2   N   0.388907248246479   0.444440174859971   0.875000000000000   1.0000000
N2   N   0.888912326545991   0.944451892592207   0.875000000000000   1.0000000
N2   N   0.056148025012012   0.945303787308331   0.375000000000000   1.0000000
N2   N   0.722233063097004   0.444444070960458   0.875000000000000   1.0000000
N2   N   0.388985535342242   0.945118615603855   0.375000000000000   1.0000000
N2   N   0.223009404940807   0.444217309239146   0.375000000000000   1.0000000
N2   N   0.222768850156150   0.610933004566513   0.375000000000000   1.0000000
N2   N   0.722035538958398   0.944916110148167   0.375000000000000   1.0000000
N2   N   0.889820891939839   0.443850627726921   0.375000000000000   1.0000000
N2   N   0.055568249688842   0.611105497042911   0.875000000000000   1.0000000
N2   N   0.222246684577464   0.111115618054390   0.875000000000000   1.0000000
N2   N   0.722231650509201   0.611105174504387   0.875000000000000   1.0000000
N2   N   0.555578293013929   0.111118891873757   0.875000000000000   1.0000000
N2   N   0.888914159478434   0.111114641595830   0.875000000000000   1.0000000
B2   B   0.111468705109393   0.056230780424695   0.375000000000000   1.0000000
B2   B   0.444777400044382   0.056187099088317   0.375000000000000   1.0000000
B2   B   0.945195509684612   0.554752952477742   0.375000000000000   1.0000000
B2   B   0.777946180933726   0.055868398181230   0.375000000000000   1.0000000
B2   B   0.111121168344918   0.722201577355696   0.875000000000000   1.0000000
B2   B   0.444460823470440   0.722269547896485   0.875000000000000   1.0000000
B2   B   0.277765331227800   0.222194067726714   0.875000000000000   1.0000000
B2   B   0.777844445826348   0.722287661512639   0.875000000000000   1.0000000
B2   B   0.611153629295786   0.222182653677232   0.875000000000000   1.0000000
B2   B   0.944429300258534   0.222222987541155   0.875000000000000   1.0000000
B2   B   0.277788273809660   0.722256078471579   0.375000000000000   1.0000000
B2   B   0.109729902605996   0.221515095745689   0.375000000000000   1.0000000
B2   B   0.446379012466583   0.223894734036774   0.375000000000000   1.0000000
B2   B   0.611849783684159   0.723785980675591   0.375000000000000   1.0000000
B2   B   0.944077678668532   0.722105613051964   0.375000000000000   1.0000000
B2   B   0.778368825434311   0.221281504109579   0.375000000000000   1.0000000
B2   B   0.111142238103559   0.888882946748836   0.875000000000000   1.0000000
B2   B   0.444467463343262   0.888884597493454   0.875000000000000   1.0000000
B2   B   0.277740117829102   0.388886635342356   0.875000000000000   1.0000000
B2   B   0.611167092003522   0.388872341120964   0.875000000000000   1.0000000
B2   B   0.777811131390045   0.888946788924617   0.875000000000000   1.0000000
B2   B   0.944449113901754   0.388859096459173   0.875000000000000   1.0000000
B2   B   0.111094473549855   0.388578182715430   0.375000000000000   1.0000000
B2   B   0.277812494236938   0.889234610097762   0.375000000000000   1.0000000
B2   B   0.611145652769482   0.889132165323349   0.375000000000000   1.0000000
B2   B   0.945193589925892   0.890110877460185   0.375000000000000   1.0000000
B2   B   0.779357953850282   0.386554389575944   0.375000000000000   1.0000000
B2   B   0.277763426098266   0.555555268217428   0.875000000000000   1.0000000
B2   B   0.111088447188985   0.055547654638870   0.875000000000000   1.0000000
B2   B   0.611132261587800   0.555574328518451   0.875000000000000   1.0000000
B2   B   0.444497652467471   0.055545853307067   0.875000000000000   1.0000000
B2   B   0.944497491044219   0.555548503182505   0.875000000000000   1.0000000
B2   B   0.111457358917476   0.555389439834658   0.375000000000000   1.0000000
B2   B   0.777793475257715   0.055555746301426   0.875000000000000   1.0000000
B2   B   0.277995541962629   0.056252979983211   0.375000000000000   1.0000000
B2   B   0.444144415095450   0.555184482754112   0.375000000000000   1.0000000
B2   B   0.778343132631659   0.550627399730160   0.375000000000000   1.0000000
B2   B   0.611242539993948   0.055114707552709   0.375000000000000   1.0000000
B2   B   0.444457063440686   0.555587289161313   0.875000000000000   1.0000000
B2   B   0.944581905749755   0.055982883578477   0.375000000000000   1.0000000
B2   B   0.277810814079607   0.722240418912280   0.875000000000000   1.0000000
B2   B   0.111068347458895   0.222183779482277   0.875000000000000   1.0000000
B2   B   0.444473416471808   0.222193279399526   0.875000000000000   1.0000000
B2   B   0.611149094640000   0.722273000660908   0.875000000000000   1.0000000
B2   B   0.944480856065536   0.722230505063587   0.875000000000000   1.0000000
B2   B   0.777827059585219   0.222219562601205   0.875000000000000   1.0000000
B2   B   0.111082062019531   0.722113964844881   0.375000000000000   1.0000000
B2   B   0.444215887519795   0.721965218460230   0.375000000000000   1.0000000
B2   B   0.276494822213775   0.222766308662010   0.375000000000000   1.0000000
B2   B   0.778793287430500   0.727012939365520   0.375000000000000   1.0000000
B2   B   0.612143181728480   0.221024084481255   0.375000000000000   1.0000000
B2   B   0.944440944598237   0.221994003741474   0.375000000000000   1.0000000
B2   B   0.111104926794005   0.388888376803459   0.875000000000000   1.0000000
B2   B   0.277793441984259   0.888887932126814   0.875000000000000   1.0000000
B2   B   0.611165046412289   0.888933074310008   0.875000000000000   1.0000000
B2   B   0.444446505485128   0.388869176305651   0.875000000000000   1.0000000
B2   B   0.944460300210673   0.888907737735984   0.875000000000000   1.0000000
B2   B   0.111199099627047   0.889325457148135   0.375000000000000   1.0000000
B2   B   0.777829347021606   0.388868184742129   0.875000000000000   1.0000000
B2   B   0.444357903316183   0.888952999598075   0.375000000000000   1.0000000
B2   B   0.275163592200883   0.386996899644745   0.375000000000000   1.0000000
B2   B   0.277627740835538   0.555342904138972   0.375000000000000   1.0000000
B2   B   0.613650993220017   0.387115314438283   0.375000000000000   1.0000000
B2   B   0.778424016212155   0.891320939405419   0.375000000000000   1.0000000
B2   B   0.945314257946260   0.388309290946691   0.375000000000000   1.0000000
B2   B   0.111110147954600   0.555558019787729   0.875000000000000   1.0000000
B2   B   0.277784195412672   0.055510086665085   0.875000000000000   1.0000000
B2   B   0.777840603560853   0.555542254748300   0.875000000000000   1.0000000
B2   B   0.611144822525253   0.055565864603199   0.875000000000000   1.0000000
B2   B   0.944459513495939   0.055566544659889   0.875000000000000   1.0000000
B2   B   0.055510881251539   0.111059074051036   0.124853473914238   1.0000000
B2   B   0.555558719564960   0.611259772457721   0.124317305484099   1.0000000
B2   B   0.388831820561800   0.110919412733963   0.124948496189368   1.0000000
B2   B   0.889095305129956   0.611164174974282   0.125092971606240   1.0000000
B2   B   0.722229430939481   0.111125869281582   0.124869976770944   1.0000000
B2   B   0.055674752417322   0.777818160881504   0.625024294570454   1.0000000
B2   B   0.388815229912551   0.777873341103686   0.625118242555228   1.0000000
B2   B   0.222064463556139   0.277693069483039   0.625220233134623   1.0000000
B2   B   0.722299222476022   0.777992601219057   0.625151619447232   1.0000000
B2   B   0.555631359418122   0.277650089508114   0.625009417203725   1.0000000
B2   B   0.888901528537929   0.277794582518608   0.625138144796914   1.0000000
B2   B   0.222218014868240   0.777807165281464   0.124891685384418   1.0000000
B2   B   0.055474236220555   0.277794470699769   0.124821437887806   1.0000000
B2   B   0.388791656820053   0.277658939784853   0.124661429865258   1.0000000
B2   B   0.555497791238754   0.777943805200842   0.124873686442643   1.0000000
B2   B   0.889053502008900   0.777927350694046   0.125056355241725   1.0000000
B2   B   0.722309225120875   0.277742930671732   0.124891552531371   1.0000000
B2   B   0.055581799328312   0.944437360860007   0.625076899801677   1.0000000
B2   B   0.388849211471772   0.944401726379999   0.625119381255689   1.0000000
B2   B   0.222077267341180   0.444525832992064   0.625155417564843   1.0000000
B2   B   0.555641129273561   0.444534217871719   0.625608343038254   1.0000000
B2   B   0.722233971372441   0.944553846460709   0.625107793663314   1.0000000
B2   B   0.888985307231733   0.444451301761277   0.625101785268438   1.0000000
B2   B   0.055528149241333   0.444501063658296   0.124859099267587   1.0000000
B2   B   0.222212215214802   0.944352718939421   0.124928784896076   1.0000000
B2   B   0.555516089281759   0.944498773450296   0.124890017179883   1.0000000
B2   B   0.388771561948779   0.444499425824641   0.124442033641331   1.0000000
B2   B   0.888948373313240   0.944522252262015   0.124877428161412   1.0000000
B2   B   0.722421342461025   0.444394270706427   0.125062023763534   1.0000000
B2   B   0.222143736330023   0.611208178181652   0.625132299908617   1.0000000
B2   B   0.055510881251539   0.111059074051036   0.625146526085761   1.0000000
B2   B   0.555558719564960   0.611259772457721   0.625682694515901   1.0000000
B2   B   0.388831820561800   0.110919412733963   0.625051503810632   1.0000000
B2   B   0.889095305129955   0.611164174974282   0.624907028393760   1.0000000
B2   B   0.055614931646071   0.611164603568885   0.124925995947527   1.0000000
B2   B   0.722229430939481   0.111125869281582   0.625130023229056   1.0000000
B2   B   0.222118770126804   0.110961811833201   0.124899273971554   1.0000000
B2   B   0.388766446721967   0.611260408230247   0.124829551306567   1.0000000
B2   B   0.722302935588248   0.611202689457095   0.124555227089640   1.0000000
B2   B   0.555558144153952   0.111041065798750   0.124910671707286   1.0000000
B2   B   0.388766446721967   0.611260408230247   0.625170448693433   1.0000000
B2   B   0.888877055000627   0.111142669945482   0.124855089545950   1.0000000
B2   B   0.222218014868240   0.777807165281464   0.625108314615582   1.0000000
B2   B   0.055474236220555   0.277794470699769   0.625178562112194   1.0000000
B2   B   0.388791656820053   0.277658939784853   0.625338570134741   1.0000000
B2   B   0.555497791238754   0.777943805200842   0.625126313557356   1.0000000
B2   B   0.889053502008901   0.777927350694046   0.624943644758275   1.0000000
B2   B   0.722309225120875   0.277742930671732   0.625108447468628   1.0000000
B2   B   0.055674752417322   0.777818160881504   0.124975705429547   1.0000000
B2   B   0.388815229912551   0.777873341103686   0.124881757444772   1.0000000
B2   B   0.222064463556139   0.277693069483039   0.124779766865377   1.0000000
B2   B   0.722299222476022   0.777992601219057   0.124848380552768   1.0000000
B2   B   0.555631359418122   0.277650089508114   0.124990582796275   1.0000000
B2   B   0.888901528537929   0.277794582518608   0.124861855203086   1.0000000
B2   B   0.055528149241333   0.444501063658296   0.625140900732412   1.0000000
B2   B   0.222212215214802   0.944352718939421   0.625071215103924   1.0000000
B2   B   0.555516089281759   0.944498773450296   0.625109982820117   1.0000000
B2   B   0.388771561948779   0.444499425824641   0.625557966358670   1.0000000
B2   B   0.888948373313240   0.944522252262015   0.625122571838587   1.0000000
B2   B   0.055581799328312   0.944437360860007   0.124923100198323   1.0000000
B2   B   0.722421342461024   0.444394270706427   0.624937976236466   1.0000000
B2   B   0.388849211471772   0.944401726379999   0.124880618744310   1.0000000
B2   B   0.222077267341180   0.444525832992064   0.124844582435156   1.0000000
B2   B   0.222143736330023   0.611208178181652   0.124867700091382   1.0000000
B2   B   0.555641129273561   0.444534217871719   0.124391656961746   1.0000000
B2   B   0.722233971372441   0.944553846460709   0.124892206336688   1.0000000
B2   B   0.888985307231733   0.444451301761277   0.124898214731561   1.0000000
B2   B   0.055614931646071   0.611164603568885   0.625074004052472   1.0000000
B2   B   0.222118770126804   0.110961811833201   0.625100726028446   1.0000000
B2   B   0.722302935588248   0.611202689457095   0.625444772910361   1.0000000
B2   B   0.555558144153952   0.111041065798750   0.625089328292714   1.0000000
B2   B   0.888877055000627   0.111142669945482   0.625144910454051   1.0000000


