data_1
_audit_creation_method   'vasp2cif'
_cell_length_a    17.5279
_cell_length_b    17.52789999999977
_cell_length_c    15.0
_cell_angle_alpha    90.0
_cell_angle_beta    90.0
_cell_angle_gamma    120.00000000000043

_symmetry_space_group_name_H-M    'P 1'
loop_
_atom_site_label
_atom_site_type_symbol
_atom_site_fract_x
_atom_site_fract_y
_atom_site_fract_z
_atom_site_occupancy
B2   B   0.906678086381654   0.952260833142274   0.111232018242648   1.0000000
B2   B   0.907176121346557   0.095472952111453   0.111293441938874   1.0000000
B2   B   0.907271278538451   0.238343907722101   0.111249845808925   1.0000000
B2   B   0.906955695449179   0.380982661544484   0.111214913517166   1.0000000
B2   B   0.906467226374898   0.523463983784910   0.111249424344862   1.0000000
B2   B   0.906991810650157   0.667087386885163   0.111316818267132   1.0000000
B2   B   0.906181053710336   0.809068421311866   0.111258088057876   1.0000000
B2   B   0.049408488393366   0.952159065837028   0.111209830618544   1.0000000
B2   B   0.049870860261457   0.095333114617983   0.111234869486750   1.0000000
B2   B   0.050615976613492   0.238734556787643   0.111272746576430   1.0000000
B2   B   0.050476897463052   0.381194286832210   0.111199114630282   1.0000000
B2   B   0.050402892290053   0.523692160034544   0.111209398100281   1.0000000
B2   B   0.049459426702915   0.666424317795957   0.111269847591410   1.0000000
B2   B   0.049638632005611   0.809572035657777   0.111261706892850   1.0000000
B2   B   0.192370130028936   0.952153558028253   0.111198588721651   1.0000000
B2   B   0.192467184293123   0.095051466279278   0.111202038908025   1.0000000
B2   B   0.193083358420587   0.238177739277210   0.111206155859754   1.0000000
B2   B   0.194364642994338   0.381728550733389   0.111239302768380   1.0000000
B2   B   0.194575380805966   0.524351296793139   0.111257684787655   1.0000000
B2   B   0.192448858651345   0.666567916591351   0.111243035131981   1.0000000
B2   B   0.192451665100743   0.809347479377247   0.111204727328712   1.0000000
B2   B   0.335375816444032   0.952076987057665   0.111193530497771   1.0000000
B2   B   0.335037425055085   0.094880387222163   0.111244716482244   1.0000000
B2   B   0.335486871567536   0.238196889679100   0.111242715187821   1.0000000
B2   B   0.335993823313400   0.380815523972620   0.111231980353712   1.0000000
B2   B   0.334932671554438   0.665647506270407   0.111270555104286   1.0000000
B2   B   0.335391004491463   0.808937027493002   0.111206062403430   1.0000000
B2   B   0.478335970562741   0.951965007089429   0.111192702967904   1.0000000
B2   B   0.478304111423748   0.095276188277471   0.111240977093535   1.0000000
B2   B   0.477454719924225   0.237963495980968   0.111271904306158   1.0000000
B2   B   0.478673174742151   0.382073016837691   0.111243886566822   1.0000000
B2   B   0.477450496633424   0.664920598404855   0.111277936110459   1.0000000
B2   B   0.478187210704864   0.808592148004608   0.111209590632128   1.0000000
B2   B   0.621225471295957   0.952005181650732   0.111206437310776   1.0000000
B2   B   0.621242270392316   0.095178082195773   0.111209584903365   1.0000000
B2   B   0.621212231376462   0.238442122556555   0.111225489749492   1.0000000
B2   B   0.619581404340403   0.380832972596928   0.111107488684262   1.0000000
B2   B   0.621143711033369   0.665772255833422   0.111219097737809   1.0000000
B2   B   0.621201064432787   0.808741760363431   0.111244913409425   1.0000000
B2   B   0.763996219363504   0.952242625029935   0.111241788420317   1.0000000
B2   B   0.764202809426243   0.095321017780496   0.111240171975884   1.0000000
B2   B   0.764151526498478   0.238345695667481   0.111222719209383   1.0000000
B2   B   0.763504928861752   0.381258649271281   0.111165107745348   1.0000000
B2   B   0.763279483239900   0.524518116625289   0.111115186986821   1.0000000
B2   B   0.763336981362794   0.665644779931646   0.111244289573687   1.0000000
B2   B   0.763459922445829   0.809153709298402   0.111208058778813   1.0000000
C2   C   0.337749842407618   0.524109988468247   0.111354467119611   1.0000000
C2   C   0.477665410178436   0.524582299898227   0.111436822651916   1.0000000
C2   C   0.620300834769041   0.526011742148530   0.111429346709942   1.0000000
C2   C   0.664894070148546   0.478380544689368   0.110980335992991   1.0000000
N2   N   0.954141397950610   0.904624611547632   0.111215486925512   1.0000000
N2   N   0.954709431671163   0.047805489454154   0.111247608186475   1.0000000
N2   N   0.955424693474007   0.191050097157925   0.111270635256025   1.0000000
N2   N   0.955437948996170   0.333657853899188   0.111198446249355   1.0000000
N2   N   0.955378050870933   0.476237233852807   0.111217619103815   1.0000000
N2   N   0.954775730054651   0.619162283381488   0.111275574659450   1.0000000
N2   N   0.954728425101169   0.762451173508570   0.111279632406884   1.0000000
N2   N   0.097284931849913   0.904823079645330   0.111197499693327   1.0000000
N2   N   0.097323397896827   0.047712774925202   0.111183611463178   1.0000000
N2   N   0.098133613090393   0.191100738982850   0.111229912878496   1.0000000
N2   N   0.099367256370570   0.334639464478707   0.111211630081020   1.0000000
N2   N   0.099499621298420   0.476392724622194   0.111181070375708   1.0000000
N2   N   0.097732270627566   0.618892706949961   0.111217070954025   1.0000000
N2   N   0.097431254543644   0.761852672385002   0.111235150780500   1.0000000
N2   N   0.240123180738096   0.904506103042198   0.111172523930847   1.0000000
N2   N   0.239828185644873   0.047365793680702   0.111194403262178   1.0000000
N2   N   0.240364975340861   0.190834282141217   0.111194869769104   1.0000000
N2   N   0.241837847478702   0.334598754526985   0.111190792110252   1.0000000
N2   N   0.245475519864068   0.477879441838496   0.111258368576620   1.0000000
N2   N   0.240580442600222   0.618828505885991   0.111254696954116   1.0000000
N2   N   0.240324371550039   0.761572914337652   0.111200150846353   1.0000000
N2   N   0.382978586099259   0.904018559709023   0.111175219816882   1.0000000
N2   N   0.382746097007171   0.047185103247305   0.111217955470647   1.0000000
N2   N   0.381952980943912   0.189945151341602   0.111247873483818   1.0000000
N2   N   0.383141389464713   0.334685254216699   0.111221459328419   1.0000000
N2   N   0.386218757126868   0.480446876688215   0.111307260225528   1.0000000
N2   N   0.381782759954647   0.616032817986831   0.111263065914298   1.0000000
N2   N   0.383026668688516   0.760519919798559   0.111214310930196   1.0000000
N2   N   0.525704045812609   0.903678809037389   0.111178213515979   1.0000000
N2   N   0.525775471212587   0.047092174185099   0.111189656452658   1.0000000
N2   N   0.525372164657506   0.190153897061012   0.111240660828491   1.0000000
N2   N   0.523276433372247   0.332099753062854   0.111235364710304   1.0000000
N2   N   0.523634738332618   0.478835464680185   0.111280302946073   1.0000000
N2   N   0.523657237953260   0.615467909396211   0.111319342618072   1.0000000
N2   N   0.524829845857525   0.759431605614472   0.111206641399527   1.0000000
N2   N   0.668433481746430   0.903992498785919   0.111221776251912   1.0000000
N2   N   0.668789665137219   0.047200469197149   0.111191791362918   1.0000000
N2   N   0.668776581507418   0.190209375079653   0.111211234746291   1.0000000
N2   N   0.668205577121549   0.332916676693074   0.111147499416691   1.0000000
N2   N   0.666240139020517   0.617570824932222   0.111255428475811   1.0000000
N2   N   0.667960122503533   0.761076289434576   0.111212626114225   1.0000000
N2   N   0.811371712058054   0.904597473660430   0.111199995576788   1.0000000
N2   N   0.811861585427121   0.047661305190039   0.111251349779680   1.0000000
N2   N   0.812053623649543   0.190570309080060   0.111227782660415   1.0000000
N2   N   0.811889909064962   0.333401301898640   0.111192682674222   1.0000000
N2   N   0.811867998509966   0.476375001344281   0.111157912230021   1.0000000
N2   N   0.812728436485825   0.620610768427708   0.111255430889842   1.0000000
N2   N   0.810517426146807   0.761318391901522   0.111210499622885   1.0000000


