data_1
_audit_creation_method   'vasp2cif'
_cell_length_a    17.52789999999977
_cell_length_b    17.52789999999977
_cell_length_c    15.0
_cell_angle_alpha    90.0
_cell_angle_beta    90.0
_cell_angle_gamma    119.99999999999916

_symmetry_space_group_name_H-M    'P 1'
loop_
_atom_site_label
_atom_site_type_symbol
_atom_site_fract_x
_atom_site_fract_y
_atom_site_fract_z
_atom_site_occupancy
B2   B   0.905219083093508   0.953085537529892   0.111020935690556   1.0000000
B2   B   0.904998516568041   0.095241412972109   0.111060559871569   1.0000000
B2   B   0.905264323529281   0.237668357357804   0.111031517772871   1.0000000
B2   B   0.906016731415717   0.380432536921738   0.111010140749135   1.0000000
B2   B   0.908780670486695   0.524201369180414   0.110892643173472   1.0000000
B2   B   0.908906573304527   0.670305138507168   0.110857509105191   1.0000000
B2   B   0.905931491816953   0.811033094437676   0.111019651611095   1.0000000
B2   B   0.048009326999004   0.952848644300811   0.111030954828401   1.0000000
B2   B   0.047482435515232   0.095201796553119   0.111024635198867   1.0000000
B2   B   0.047483379442151   0.237862416279707   0.111004102196772   1.0000000
B2   B   0.047995286039855   0.380856728016421   0.111039557690087   1.0000000
B2   B   0.049227618355939   0.524112511496377   0.111055644550276   1.0000000
B2   B   0.049153202862015   0.667479553256833   0.111006259194827   1.0000000
B2   B   0.049366728465240   0.811007919867304   0.111054094166404   1.0000000
B2   B   0.190687894123014   0.952454736330723   0.111007832074901   1.0000000
B2   B   0.189858015204018   0.094809599178637   0.110936690098712   1.0000000
B2   B   0.189371238569587   0.237509552475671   0.110864231071779   1.0000000
B2   B   0.189689408282098   0.380732192749525   0.110928024723816   1.0000000
B2   B   0.190476444754676   0.524089153516047   0.111076896763536   1.0000000
B2   B   0.190998894695088   0.667124570826786   0.111094058531760   1.0000000
B2   B   0.191086304002350   0.809929598802955   0.111027642063326   1.0000000
B2   B   0.333294696132718   0.952152613053717   0.111013926061701   1.0000000
B2   B   0.332144571115325   0.093901248053386   0.110929222169718   1.0000000
B2   B   0.331227802115738   0.236872552931649   0.110773535923217   1.0000000
B2   B   0.330872071664696   0.379694016026047   0.110821865996388   1.0000000
B2   B   0.331637540348558   0.524262945033426   0.111020833532272   1.0000000
B2   B   0.333079230214940   0.667196501051715   0.111137275954787   1.0000000
B2   B   0.333404305493801   0.809768493402351   0.111093577352043   1.0000000
B2   B   0.476041584569658   0.952085037430867   0.110998582713324   1.0000000
B2   B   0.475780083282179   0.094173067528012   0.110986128943831   1.0000000
B2   B   0.472839282301639   0.234302674180324   0.111137899077187   1.0000000
B2   B   0.471584161259839   0.375930196556105   0.111650911108788   1.0000000
B2   B   0.471056009271695   0.525486153908998   0.111102687818320   1.0000000
B2   B   0.475377137565782   0.667539718868416   0.111047367792939   1.0000000
B2   B   0.475955418401968   0.809857396695675   0.111084134345409   1.0000000
B2   B   0.618984727423787   0.952301006329505   0.110975530052043   1.0000000
B2   B   0.619089209830863   0.093440329445776   0.110929573607095   1.0000000
B2   B   0.619532626302316   0.233783836262392   0.111092080938401   1.0000000
B2   B   0.611344556577173   0.363427145744034   0.111733018615143   1.0000000
B2   B   0.611634094943000   0.531935830458773   0.111266409275504   1.0000000
B2   B   0.619832836413426   0.671237914035538   0.111027243443988   1.0000000
B2   B   0.619004608155946   0.811192351936697   0.110974246119712   1.0000000
B2   B   0.762190357975929   0.952925612682549   0.110979188916900   1.0000000
B2   B   0.762234319925774   0.094780593092598   0.110988874000958   1.0000000
B2   B   0.762680811034548   0.236740182364247   0.110969444659447   1.0000000
B2   B   0.763164423849889   0.378729652073470   0.111018679413422   1.0000000
B2   B   0.777428658770879   0.531481007015503   0.110864698044590   1.0000000
B2   B   0.762837202019037   0.669515054415987   0.110982371573626   1.0000000
B2   B   0.762573683441558   0.811368396906686   0.110994560864489   1.0000000
N2   N   0.953012444497951   0.905759386100021   0.111006918802375   1.0000000
N2   N   0.952604229062708   0.047885846228025   0.111040369443124   1.0000000
N2   N   0.952660041680854   0.190223919788210   0.111032560048100   1.0000000
N2   N   0.953170070161329   0.332844096465774   0.111023270712569   1.0000000
N2   N   0.954804653261047   0.475943094509987   0.110997619848549   1.0000000
N2   N   0.954521559927519   0.620114394034837   0.110862566990694   1.0000000
N2   N   0.954863347005837   0.764595263056595   0.110983258925561   1.0000000
N2   N   0.095998106759229   0.905644565384204   0.111034168068412   1.0000000
N2   N   0.095056891879552   0.047695841015964   0.111004237607560   1.0000000
N2   N   0.094701712295099   0.190172403710193   0.110978943941347   1.0000000
N2   N   0.095061975067913   0.333049042731621   0.110974827297882   1.0000000
N2   N   0.095920475005697   0.476122387380416   0.111048729419485   1.0000000
N2   N   0.096255477076445   0.619424069206206   0.111053717273152   1.0000000
N2   N   0.096296089585108   0.762685643730759   0.111030321100599   1.0000000
N2   N   0.238318852357834   0.904913606132682   0.110992204888899   1.0000000
N2   N   0.237458042523080   0.047184926622267   0.110946893090322   1.0000000
N2   N   0.236693222864491   0.189797353790373   0.110778462740433   1.0000000
N2   N   0.236580680671449   0.332716790722176   0.110787128286295   1.0000000
N2   N   0.237276895334451   0.476116567175238   0.110995485142512   1.0000000
N2   N   0.238220731920928   0.619306800511344   0.111098521076917   1.0000000
N2   N   0.238474868047978   0.762212924803387   0.111048429385008   1.0000000
N2   N   0.380931721119341   0.904691744850480   0.111026738301899   1.0000000
N2   N   0.380521924918011   0.047039942729907   0.110970324438355   1.0000000
N2   N   0.378534652515396   0.188595103704779   0.110835614814354   1.0000000
N2   N   0.377767653727435   0.332216473034315   0.110853953652235   1.0000000
N2   N   0.378214885229418   0.475932291282385   0.110964156772683   1.0000000
N2   N   0.380332327806504   0.619403452894777   0.111079153964526   1.0000000
N2   N   0.380870743582617   0.762171015785651   0.111118232580213   1.0000000
N2   N   0.523746412071378   0.904723140943095   0.111012998051483   1.0000000
N2   N   0.523710606757308   0.046851780202659   0.110923920370514   1.0000000
N2   N   0.523188866352181   0.188950197815259   0.111053528949246   1.0000000
N2   N   0.518585693006594   0.329271576681396   0.111526496369557   1.0000000
N2   N   0.522864886479033   0.619716276407245   0.111009978724766   1.0000000
N2   N   0.523554657911990   0.762461932592557   0.111023988173953   1.0000000
N2   N   0.666912572768726   0.905594249629268   0.110948385279319   1.0000000
N2   N   0.666996463214309   0.046780613465679   0.110923903353480   1.0000000
N2   N   0.667432979977228   0.187592725848197   0.110932277873102   1.0000000
N2   N   0.668241383903563   0.327096883415581   0.111256585360504   1.0000000
N2   N   0.667331055968150   0.625869382305199   0.111088194265928   1.0000000
N2   N   0.667217592469677   0.765118275344868   0.110944839557136   1.0000000
N2   N   0.810170453597351   0.905964288205645   0.110971441633778   1.0000000
N2   N   0.809956974371344   0.047672024751744   0.111009159631757   1.0000000
N2   N   0.810310945389253   0.189674576623102   0.110976763303402   1.0000000
N2   N   0.811032593167867   0.332006190574226   0.110957189148559   1.0000000
N2   N   0.814691045036075   0.475706781543148   0.110822740755401   1.0000000
N2   N   0.814867186819175   0.624677033908503   0.110759612705912   1.0000000
N2   N   0.810602132919077   0.764105316992837   0.111005631937841   1.0000000
O2   O   0.515205059384975   0.476580568559801   0.111388819897003   1.0000000
S2   S   0.665510450914963   0.475143155058294   0.111219286600696   1.0000000


