data_1
_audit_creation_method   'vasp2cif'
_cell_length_a    17.52789999999977
_cell_length_b    17.52789999999977
_cell_length_c    15.0
_cell_angle_alpha    90.0
_cell_angle_beta    90.0
_cell_angle_gamma    119.99999999999916

_symmetry_space_group_name_H-M    'P 1'
loop_
_atom_site_label
_atom_site_type_symbol
_atom_site_fract_x
_atom_site_fract_y
_atom_site_fract_z
_atom_site_occupancy
B2   B   0.902535493131658   0.949797763288786   0.106114783088212   1.0000000
B2   B   0.903796280922112   0.093110281964078   0.108688863735281   1.0000000
B2   B   0.904521553982303   0.236166835350625   0.108574240839963   1.0000000
B2   B   0.904721108625139   0.379164716175752   0.106689146918581   1.0000000
B2   B   0.905440470256089   0.522490396199902   0.104040855346496   1.0000000
B2   B   0.905409370623087   0.665819283305847   0.102422524532292   1.0000000
B2   B   0.903906136462786   0.808484853902475   0.101301328931641   1.0000000
B2   B   0.047193067057704   0.952512883835702   0.105388559490446   1.0000000
B2   B   0.047978488688997   0.095651115146043   0.106504742234247   1.0000000
B2   B   0.048178819204551   0.237772690606574   0.107438250818331   1.0000000
B2   B   0.047786938265420   0.379929824026546   0.107344583662016   1.0000000
B2   B   0.047278941074182   0.522865149192364   0.106483433844814   1.0000000
B2   B   0.047071058021056   0.666358858803548   0.105715134504340   1.0000000
B2   B   0.047193145783197   0.809634138376059   0.104782269814287   1.0000000
B2   B   0.190364208337827   0.953325585768623   0.107048499382661   1.0000000
B2   B   0.191064320007970   0.096702563711877   0.105384723039054   1.0000000
B2   B   0.194035327397164   0.242001763536574   0.105642317663479   1.0000000
B2   B   0.192194280396371   0.382115250610113   0.107123465598124   1.0000000
B2   B   0.189765225606361   0.523709156566992   0.107429219193773   1.0000000
B2   B   0.188322368634552   0.666752282373397   0.107822535361963   1.0000000
B2   B   0.189654221710786   0.810065434758495   0.108049368453807   1.0000000
B2   B   0.332991703922939   0.953075502671943   0.109178291160325   1.0000000
B2   B   0.333921281227829   0.096593387720053   0.108533920997626   1.0000000
B2   B   0.334848867353615   0.240462411432395   0.107119919791600   1.0000000
B2   B   0.342924144560216   0.391129534427205   0.110807850073399   1.0000000
B2   B   0.333612989674243   0.526236707681540   0.109863000446522   1.0000000
B2   B   0.328935443229814   0.667616864785937   0.108251300268633   1.0000000
B2   B   0.331894507624537   0.810116389156549   0.109505623643371   1.0000000
B2   B   0.475463255996381   0.951339504822419   0.110116352027598   1.0000000
B2   B   0.476327056888253   0.094969341526874   0.109977047504143   1.0000000
B2   B   0.477269477803341   0.238669268103974   0.116891779722612   1.0000000
B2   B   0.472082327414949   0.376123096820260   0.146742844644138   1.0000000
B2   B   0.493819666717101   0.583119251776165   0.121233316009577   1.0000000
B2   B   0.467607816628591   0.661811621916970   0.116242097265304   1.0000000
B2   B   0.473902506787127   0.807320381646288   0.111601617712891   1.0000000
B2   B   0.617504916236049   0.948715950085617   0.110778076439546   1.0000000
B2   B   0.618681685737078   0.093195764402899   0.109964065509409   1.0000000
B2   B   0.619363322546933   0.236989098028796   0.112555328248589   1.0000000
B2   B   0.620278699170089   0.380533458557444   0.129036217729058   1.0000000
B2   B   0.635851152254144   0.531474859226236   0.154100704540167   1.0000000
B2   B   0.611450466509613   0.650612391953991   0.110961651575514   1.0000000
B2   B   0.614593037853277   0.802208601187946   0.111223537505408   1.0000000
B2   B   0.759303002056791   0.948061945871423   0.109184350278830   1.0000000
B2   B   0.760983988550987   0.092364802480402   0.109981787402959   1.0000000
B2   B   0.761751054336000   0.235927841536158   0.109043935727853   1.0000000
B2   B   0.762152272462673   0.379143519296611   0.109661365830292   1.0000000
B2   B   0.764256431237374   0.522189619997161   0.111964027563591   1.0000000
B2   B   0.763487048892702   0.664852034147319   0.101733208246858   1.0000000
B2   B   0.756505436137316   0.802829167275796   0.104632905300909   1.0000000
N2   N   0.951748633024595   0.903928882251588   0.104269370170731   1.0000000
N2   N   0.951734753061014   0.046067293608225   0.107397783468415   1.0000000
N2   N   0.952282403749466   0.188817929567516   0.108538937584651   1.0000000
N2   N   0.952303351971420   0.331550235792459   0.107606668791792   1.0000000
N2   N   0.952459407605482   0.474523773261563   0.105339530328645   1.0000000
N2   N   0.952683876484833   0.618020407426269   0.103580133952838   1.0000000
N2   N   0.952341968945065   0.761471144181915   0.101821033467386   1.0000000
N2   N   0.095017887697333   0.905140103059755   0.105847755961838   1.0000000
N2   N   0.095430230538229   0.048045237534579   0.105832681442304   1.0000000
N2   N   0.097073543793480   0.191709083933965   0.106493603690230   1.0000000
N2   N   0.096007962477181   0.333001467093654   0.107177478719134   1.0000000
N2   N   0.094569211629864   0.475170081016333   0.107166030718089   1.0000000
N2   N   0.093753191893910   0.618346810716709   0.106977718213727   1.0000000
N2   N   0.094604202566996   0.761928608793451   0.106550334143435   1.0000000
N2   N   0.237633557900439   0.905439601700879   0.108388092951896   1.0000000
N2   N   0.238342688781544   0.048645580510977   0.106615426281318   1.0000000
N2   N   0.239261705452132   0.192085379132919   0.104104480070387   1.0000000
N2   N   0.243649423852350   0.338578314556278   0.106636433539591   1.0000000
N2   N   0.237848458510751   0.476706659648569   0.107861784877425   1.0000000
N2   N   0.234495782923588   0.618915983814230   0.107469572581806   1.0000000
N2   N   0.236585715684596   0.762251066283789   0.108641337212332   1.0000000
N2   N   0.380134663804199   0.905185342319473   0.109839459749922   1.0000000
N2   N   0.380965548466006   0.048144517722790   0.109244946584234   1.0000000
N2   N   0.381765910025930   0.191513988956898   0.110469344619874   1.0000000
N2   N   0.382967885027987   0.335222583402971   0.112584507822084   1.0000000
N2   N   0.392190185039238   0.489784003987650   0.112780603149443   1.0000000
N2   N   0.374101368556394   0.620387595574953   0.108883893638178   1.0000000
N2   N   0.378559000011037   0.762511661457097   0.109835185611008   1.0000000
N2   N   0.522327350145722   0.902935489056573   0.110827532373021   1.0000000
N2   N   0.523467078964595   0.046587556386382   0.109755906422174   1.0000000
N2   N   0.524208692585358   0.189907243069074   0.112004427339676   1.0000000
N2   N   0.524271625011690   0.332376445526840   0.131849491354423   1.0000000
N2   N   0.519447314591171   0.757925323004118   0.114158759253390   1.0000000
N2   N   0.663894899973558   0.899521105918428   0.110437527222317   1.0000000
N2   N   0.665718304158844   0.044697134863834   0.110371332349424   1.0000000
N2   N   0.666586131933837   0.188585871661452   0.109813678726344   1.0000000
N2   N   0.667099295115960   0.332028967420297   0.115835746191470   1.0000000
N2   N   0.672287485152669   0.475493059852968   0.132286311443719   1.0000000
N2   N   0.670711606734664   0.615939354274455   0.110682824865946   1.0000000
N2   N   0.659595759985698   0.751412624679019   0.108129925469210   1.0000000
N2   N   0.806369126593444   0.900097878812775   0.106860216925396   1.0000000
N2   N   0.808154694185857   0.044344342449134   0.109691426292144   1.0000000
N2   N   0.809116142309214   0.187990234999914   0.109275299156655   1.0000000
N2   N   0.809550285889906   0.331159898002787   0.107656531628013   1.0000000
N2   N   0.810967238484383   0.474177810869452   0.105441051403246   1.0000000
N2   N   0.811551909534570   0.617563463281784   0.103840660114570   1.0000000
N2   N   0.808948342687819   0.760042841289072   0.098928346537465   1.0000000
Al2   Al   0.521313179604722   0.493042447422651   0.222268059646128   1.0000000


