data_1
_audit_creation_method   'vasp2cif'
_cell_length_a    14.93631414619966
_cell_length_b    14.936314146199727
_cell_length_c    13.341276283792837
_cell_angle_alpha    90.0
_cell_angle_beta    90.0
_cell_angle_gamma    119.99999999999984

_symmetry_space_group_name_H-M    'P 1'
loop_
_atom_site_label
_atom_site_type_symbol
_atom_site_fract_x
_atom_site_fract_y
_atom_site_fract_z
_atom_site_occupancy
N2   N   0.111073003339161   0.055558465394575   0.124833938976693   1.0000000
N2   N   0.611120751497494   0.555543006920136   0.124909179084741   1.0000000
N2   N   0.444476286315780   0.055562168653773   0.124832956532682   1.0000000
N2   N   0.944444088794691   0.555544406227560   0.124874323918210   1.0000000
N2   N   0.777730771331080   0.055532052332208   0.124864450100258   1.0000000
N2   N   0.111127232845195   0.722230283089261   0.625137065492460   1.0000000
N2   N   0.444476286315780   0.722247450995343   0.625167043467319   1.0000000
N2   N   0.277727859299916   0.222209468976690   0.624299317956480   1.0000000
N2   N   0.777763307499009   0.722221863951347   0.625172348206536   1.0000000
N2   N   0.611107766931397   0.222209817561065   0.625078411465937   1.0000000
N2   N   0.944374423733303   0.222180646136247   0.625202063122324   1.0000000
N2   N   0.277806585996555   0.722227675158097   0.124825771558046   1.0000000
N2   N   0.111028525765502   0.222180929549416   0.124861351760167   1.0000000
N2   N   0.444495415077475   0.222217687120336   0.125471148085867   1.0000000
N2   N   0.611107766931397   0.722231282703659   0.124921588534063   1.0000000
N2   N   0.944444088794691   0.722233015900465   0.124874323918210   1.0000000
N2   N   0.777741064696395   0.222197773195311   0.124878729608005   1.0000000
N2   N   0.111116622792263   0.888913980697199   0.625170729218805   1.0000000
N2   N   0.444471270524702   0.888902301929015   0.625173923977587   1.0000000
N2   N   0.277727859299916   0.388851723656555   0.624299317956480   1.0000000
N2   N   0.611120751497494   0.388911077910687   0.625090820915259   1.0000000
N2   N   0.777741064696395   0.888876624834414   0.625121270391995   1.0000000
N2   N   0.944418001220245   0.388856459678555   0.625172185178484   1.0000000
N2   N   0.111073003339161   0.388847871277914   0.124833938976693   1.0000000
N2   N   0.277806585996555   0.888912244171787   0.124825771558046   1.0000000
N2   N   0.611109643782454   0.888898771672694   0.124843383434230   1.0000000
N2   N   0.444504441714220   0.388918887523774   0.125631833585652   1.0000000
N2   N   0.944418001220245   0.888894874875018   0.124827814821516   1.0000000
N2   N   0.777763307499009   0.388874776880989   0.124827651793464   1.0000000
N2   N   0.277792058617902   0.555545578202507   0.624995254010420   1.0000000
N2   N   0.111073003339161   0.055558465394575   0.625166061023307   1.0000000
N2   N   0.611120751497494   0.555543006920136   0.625090820915259   1.0000000
N2   N   0.444476286315780   0.055562168653773   0.625167043467319   1.0000000
N2   N   0.944444088794691   0.555544406227560   0.625125676081791   1.0000000
N2   N   0.111116622792263   0.555535975428394   0.124829270781196   1.0000000
N2   N   0.777730771331080   0.055532052332208   0.625135549899741   1.0000000
N2   N   0.277792058617902   0.055579813748731   0.125004745989579   1.0000000
N2   N   0.444495415077475   0.555611061290474   0.125471148085867   1.0000000
N2   N   0.777779101450812   0.555556217392074   0.124869955051488   1.0000000
N2   N   0.611109643782454   0.055544205443087   0.124843383434230   1.0000000
N2   N   0.444495415077475   0.555611061290474   0.624528851914133   1.0000000
N2   N   0.944374423733303   0.055527110930391   0.124797936877676   1.0000000
N2   N   0.277806585996555   0.722227675158097   0.625174228441954   1.0000000
N2   N   0.111028525765502   0.222180929549416   0.625138648239832   1.0000000
N2   N   0.444495415077475   0.222217687120336   0.624528851914133   1.0000000
N2   N   0.611107766931397   0.722231282703659   0.625078411465937   1.0000000
N2   N   0.944444088794691   0.722233015900465   0.625125676081791   1.0000000
N2   N   0.777741064696395   0.222197773195311   0.625121270391995   1.0000000
N2   N   0.111127232845195   0.722230283089261   0.124862934507540   1.0000000
N2   N   0.444476286315780   0.722247450995343   0.124832956532682   1.0000000
N2   N   0.277727859299916   0.222209468976690   0.125700682043521   1.0000000
N2   N   0.777763307499009   0.722221863951347   0.124827651793464   1.0000000
N2   N   0.611107766931397   0.222209817561065   0.124921588534063   1.0000000
N2   N   0.944374423733303   0.222180646136247   0.124797936877676   1.0000000
N2   N   0.111073003339161   0.388847871277914   0.625166061023307   1.0000000
N2   N   0.277806585996555   0.888912244171787   0.625174228441954   1.0000000
N2   N   0.611109643782454   0.888898771672694   0.625156616565770   1.0000000
N2   N   0.444504441714220   0.388918887523774   0.624368166414348   1.0000000
N2   N   0.944418001220245   0.888894874875018   0.625172185178484   1.0000000
N2   N   0.111116622792263   0.888913980697199   0.124829270781196   1.0000000
N2   N   0.777763307499009   0.388874776880989   0.625172348206536   1.0000000
N2   N   0.444471270524702   0.888902301929015   0.124826076022413   1.0000000
N2   N   0.277727859299916   0.388851723656555   0.125700682043521   1.0000000
N2   N   0.277792058617902   0.555545578202507   0.125004745989579   1.0000000
N2   N   0.611120751497494   0.388911077910687   0.124909179084741   1.0000000
N2   N   0.777741064696395   0.888876624834414   0.124878729608005   1.0000000
N2   N   0.944418001220245   0.388856459678555   0.124827814821516   1.0000000
N2   N   0.111116622792263   0.555535975428394   0.625170729218805   1.0000000
N2   N   0.277792058617902   0.055579813748731   0.624995254010420   1.0000000
N2   N   0.777779101450812   0.555556217392074   0.625130044948512   1.0000000
N2   N   0.611109643782454   0.055544205443087   0.625156616565770   1.0000000
N2   N   0.944374423733303   0.055527110930391   0.625202063122324   1.0000000
N2   N   0.054198291016598   0.110099873896921   0.375000000000000   1.0000000
N2   N   0.556946460407353   0.602733150797318   0.375000000000000   1.0000000
N2   N   0.389550215479526   0.111046174547097   0.375000000000000   1.0000000
N2   N   0.891211611057174   0.612272472195257   0.375000000000000   1.0000000
N2   N   0.721784476804612   0.111601547326579   0.375000000000000   1.0000000
N2   N   0.055552344214206   0.777772604874375   0.875000000000000   1.0000000
N2   N   0.388879144243767   0.777773962681154   0.875000000000000   1.0000000
N2   N   0.222221533621087   0.277777433477211   0.875000000000000   1.0000000
N2   N   0.722225114305180   0.777773753361654   0.875000000000000   1.0000000
N2   N   0.555554632151506   0.277781747445186   0.875000000000000   1.0000000
N2   N   0.888894722717982   0.277787278745809   0.875000000000000   1.0000000
N2   N   0.223051935979255   0.778192634656295   0.375000000000000   1.0000000
N2   N   0.054198291016598   0.277431750453013   0.375000000000000   1.0000000
N2   N   0.386432935736865   0.274667194545731   0.375000000000000   1.0000000
N2   N   0.556180244455179   0.774935704759928   0.375000000000000   1.0000000
N2   N   0.888957752744755   0.777078238442368   0.375000000000000   1.0000000
N2   N   0.721864500802580   0.279539147560208   0.375000000000000   1.0000000
N2   N   0.055553902934277   0.944435330805403   0.875000000000000   1.0000000
N2   N   0.388879144243767   0.944438514895949   0.875000000000000   1.0000000
N2   N   0.222216914753367   0.444448594601364   0.875000000000000   1.0000000
N2   N   0.555558242143430   0.444445787738379   0.875000000000000   1.0000000
N2   N   0.722220829271125   0.944440895788454   0.875000000000000   1.0000000
N2   N   0.888896239182841   0.444453618454647   0.875000000000000   1.0000000
N2   N   0.054776494516761   0.444741712264129   0.375000000000000   1.0000000
N2   N   0.222616821901670   0.944377876835568   0.375000000000000   1.0000000
N2   N   0.556051478277517   0.944692405805422   0.375000000000000   1.0000000
N2   N   0.386432935736865   0.445099074524469   0.375000000000000   1.0000000
N2   N   0.887977137148641   0.943315706531668   0.375000000000000   1.0000000
N2   N   0.723163144021825   0.446807606198915   0.375000000000000   1.0000000
N2   N   0.222212358093371   0.611112847102326   0.875000000000000   1.0000000
N2   N   0.055557464214569   0.111107185573047   0.875000000000000   1.0000000
N2   N   0.555554632151506   0.611106218039655   0.875000000000000   1.0000000
N2   N   0.388881066472480   0.111106995107390   0.875000000000000   1.0000000
N2   N   0.888896540992468   0.611114937162906   0.875000000000000   1.0000000
N2   N   0.056527896771949   0.611686799363830   0.375000000000000   1.0000000
N2   N   0.722220829271125   0.111113266816006   0.875000000000000   1.0000000
N2   N   0.220315202093537   0.109184979947606   0.375000000000000   1.0000000
N2   N   0.389550215479526   0.611837374265770   0.375000000000000   1.0000000
N2   N   0.723163144021825   0.609688871156246   0.375000000000000   1.0000000
N2   N   0.556180244455179   0.114577873028587   0.375000000000000   1.0000000
N2   N   0.388881066472480   0.611107404698434   0.875000000000000   1.0000000
N2   N   0.887841576652921   0.110587454993132   0.375000000000000   1.0000000
N2   N   0.222211790996371   0.777772562164852   0.875000000000000   1.0000000
N2   N   0.055557464214569   0.277783611974858   0.875000000000000   1.0000000
N2   N   0.388885339522697   0.277775153038645   0.875000000000000   1.0000000
N2   N   0.555549074805747   0.777772149831001   0.875000000000000   1.0000000
N2   N   0.888896239182841   0.777775954061530   0.875000000000000   1.0000000
N2   N   0.722225114305180   0.277784694276862   0.875000000000000   1.0000000
N2   N   0.056527896771949   0.778174430741454   0.375000000000000   1.0000000
N2   N   0.389723207006931   0.778166317508508   0.375000000000000   1.0000000
N2   N   0.220441865746197   0.276887599539767   0.375000000000000   1.0000000
N2   N   0.721864500802580   0.775658686575707   0.375000000000000   1.0000000
N2   N   0.556946460407353   0.287546642943371   0.375000000000000   1.0000000
N2   N   0.887977137148641   0.277994763950308   0.375000000000000   1.0000000
N2   N   0.055553902934277   0.444451905462203   0.875000000000000   1.0000000
N2   N   0.222212358093371   0.944432844324382   0.875000000000000   1.0000000
N2   N   0.555546749332520   0.944440041332923   0.875000000000000   1.0000000
N2   N   0.388885339522696   0.444443519817387   0.875000000000000   1.0000000
N2   N   0.888894722717982   0.944440777305508   0.875000000000000   1.0000000
N2   N   0.054776494516761   0.943368115585961   0.375000000000000   1.0000000
N2   N   0.722230693769469   0.444451823892313   0.875000000000000   1.0000000
N2   N   0.389723207006931   0.944890222831758   0.375000000000000   1.0000000
N2   N   0.220315202093537   0.444463555479267   0.375000000000000   1.0000000
N2   N   0.222616821901670   0.611572278399438   0.375000000000000   1.0000000
N2   N   0.721784476804612   0.943516262811368   0.375000000000000   1.0000000
N2   N   0.888957752744755   0.445212847635721   0.375000000000000   1.0000000
N2   N   0.055552344214206   0.611113072673167   0.875000000000000   1.0000000
N2   N   0.222216914753367   0.111101653485339   0.875000000000000   1.0000000
N2   N   0.722230693769469   0.611112203210492   0.875000000000000   1.0000000
N2   N   0.555549074805747   0.111110258308081   0.875000000000000   1.0000000
N2   N   0.888893106258568   0.111113219795954   0.875000000000000   1.0000000
B2   B   0.110985970933602   0.055212628877313   0.375000000000000   1.0000000
B2   B   0.611130656271919   0.542060598950909   0.375000000000000   1.0000000
B2   B   0.444507960545083   0.056950802681017   0.375000000000000   1.0000000
B2   B   0.945750433109245   0.556130589437687   0.375000000000000   1.0000000
B2   B   0.776954557895875   0.055143945614605   0.375000000000000   1.0000000
B2   B   0.111122387373414   0.722227860353371   0.875000000000000   1.0000000
B2   B   0.444403158084695   0.722131540258228   0.875000000000000   1.0000000
B2   B   0.277849604941067   0.222295334421800   0.875000000000000   1.0000000
B2   B   0.777736838336114   0.722168767746952   0.875000000000000   1.0000000
B2   B   0.611044035140228   0.222261426915218   0.875000000000000   1.0000000
B2   B   0.944519655084954   0.222261658143703   0.875000000000000   1.0000000
B2   B   0.278575165741880   0.722320704994620   0.375000000000000   1.0000000
B2   B   0.111893808828191   0.222613571080760   0.375000000000000   1.0000000
B2   B   0.441570767674220   0.225959809756313   0.375000000000000   1.0000000
B2   B   0.610096192239302   0.715027633062055   0.375000000000000   1.0000000
B2   B   0.945750433109245   0.722953177004896   0.375000000000000   1.0000000
B2   B   0.776816764931075   0.223052981309658   0.375000000000000   1.0000000
B2   B   0.111142598806094   0.888928761430800   0.875000000000000   1.0000000
B2   B   0.444409124443906   0.888871228888617   0.875000000000000   1.0000000
B2   B   0.277849604941067   0.388887603852595   0.875000000000000   1.0000000
B2   B   0.611017704406255   0.388882496447797   0.875000000000000   1.0000000
B2   B   0.777774010829550   0.888856655540388   0.875000000000000   1.0000000
B2   B   0.944477495509362   0.388909640794826   0.875000000000000   1.0000000
B2   B   0.110985970933602   0.389106675389616   0.375000000000000   1.0000000
B2   B   0.278575165741880   0.889587794080588   0.375000000000000   1.0000000
B2   B   0.610530174217446   0.886697741359472   0.375000000000000   1.0000000
B2   B   0.944130373773615   0.888163706745952   0.375000000000000   1.0000000
B2   B   0.777378640023409   0.390245736764972   0.375000000000000   1.0000000
B2   B   0.277801646280683   0.555502499155356   0.875000000000000   1.0000000
B2   B   0.111198045108227   0.055625366171598   0.875000000000000   1.0000000
B2   B   0.611017704406255   0.555468541291786   0.875000000000000   1.0000000
B2   B   0.444403158084695   0.055604951159803   0.875000000000000   1.0000000
B2   B   0.944440315369678   0.555555133827747   0.875000000000000   1.0000000
B2   B   0.111900197442085   0.555804765701413   0.375000000000000   1.0000000
B2   B   0.777790262203291   0.055561797768313   0.875000000000000   1.0000000
B2   B   0.278467028462356   0.056807279135772   0.375000000000000   1.0000000
B2   B   0.441570767674220   0.548944291251243   0.375000000000000   1.0000000
B2   B   0.780756678980882   0.557045006157108   0.375000000000000   1.0000000
B2   B   0.610530174217446   0.057165766191303   0.375000000000000   1.0000000
B2   B   0.444393058728179   0.555440046777387   0.875000000000000   1.0000000
B2   B   0.944002455582414   0.055063049219946   0.375000000000000   1.0000000
B2   B   0.277774913789516   0.722192713228577   0.875000000000000   1.0000000
B2   B   0.111232706039990   0.222283019686660   0.875000000000000   1.0000000
B2   B   0.444393058728179   0.222286345284128   0.875000000000000   1.0000000
B2   B   0.611044035140228   0.722115941558337   0.875000000000000   1.0000000
B2   B   0.944440315369678   0.722218514875266   0.875000000000000   1.0000000
B2   B   0.777774010829550   0.222250688622490   0.875000000000000   1.0000000
B2   B   0.112173907999228   0.722753620666279   0.375000000000000   1.0000000
B2   B   0.444507960545083   0.720890491197402   0.375000000000000   1.0000000
B2   B   0.281039223638753   0.223976118177050   0.375000000000000   1.0000000
B2   B   0.777378640023409   0.720466236591766   0.375000000000000   1.0000000
B2   B   0.610096192239302   0.228401892510575   0.375000000000000   1.0000000
B2   B   0.944002455582414   0.222272739695804   0.375000000000000   1.0000000
B2   B   0.111198045108227   0.388906012269958   0.875000000000000   1.0000000
B2   B   0.277774913789516   0.888915533894270   0.875000000000000   1.0000000
B2   B   0.611070928767608   0.888837266790242   0.875000000000000   1.0000000
B2   B   0.444388171499840   0.388860752416585   0.875000000000000   1.0000000
B2   B   0.944477495509362   0.888901188047864   0.875000000000000   1.0000000
B2   B   0.111900197442085   0.889428765073998   0.375000000000000   1.0000000
B2   B   0.777736838336114   0.388901403922491   0.875000000000000   1.0000000
B2   B   0.444820506366184   0.889076919849756   0.375000000000000   1.0000000
B2   B   0.281039223638753   0.390396438795032   0.375000000000000   1.0000000
B2   B   0.278467028462356   0.554993082659919   0.375000000000000   1.0000000
B2   B   0.611130656271919   0.402403390654338   0.375000000000000   1.0000000
B2   B   0.776816764931075   0.887097116954746   0.375000000000000   1.0000000
B2   B   0.944130373773615   0.389300000360991   0.375000000000000   1.0000000
B2   B   0.111142598806094   0.555547170708623   0.875000000000000   1.0000000
B2   B   0.277801646280683   0.055632480458664   0.875000000000000   1.0000000
B2   B   0.777718633568310   0.555525983450823   0.875000000000000   1.0000000
B2   B   0.611070928767608   0.055566995310693   0.875000000000000   1.0000000
B2   B   0.944519655084954   0.055591330274587   0.875000000000000   1.0000000
B2   B   0.055713829235031   0.111277196772442   0.125414584634664   1.0000000
B2   B   0.555278182844926   0.610822314170234   0.126057089805496   1.0000000
B2   B   0.388985145763175   0.111448085993396   0.126021032839832   1.0000000
B2   B   0.888766886490717   0.611050109912030   0.125197300323319   1.0000000
B2   B   0.722158132639672   0.111093356550910   0.125224717447053   1.0000000
B2   B   0.055613326767958   0.777878405648018   0.624802848812549   1.0000000
B2   B   0.388973506649995   0.777715421905718   0.624715877921287   1.0000000
B2   B   0.222504302527228   0.277918817930282   0.623222565345733   1.0000000
B2   B   0.722050201542276   0.777651335248628   0.624710148796322   1.0000000
B2   B   0.555278182844926   0.277789202008027   0.623942910194505   1.0000000
B2   B   0.888881660038957   0.277728433932450   0.624787634044655   1.0000000
B2   B   0.222346542694698   0.777839938014017   0.125220741105779   1.0000000
B2   B   0.055713829235031   0.277769965795925   0.125414584634664   1.0000000
B2   B   0.388967557511546   0.278059107163427   0.128561940249537   1.0000000
B2   B   0.555488915896788   0.777633578079688   0.125396960243940   1.0000000
B2   B   0.888799601082317   0.777778479463247   0.125197926995035   1.0000000
B2   B   0.722050201542276   0.277732199626984   0.125289851203678   1.0000000
B2   B   0.055667334241110   0.944657402348726   0.624735780549747   1.0000000
B2   B   0.388973506649995   0.944591418077613   0.624715877921287   1.0000000
B2   B   0.222467811532999   0.444277935742260   0.623874212245052   1.0000000
B2   B   0.555045132530353   0.444189232931841   0.623642421102514   1.0000000
B2   B   0.722158132639672   0.944398109422098   0.624775282552947   1.0000000
B2   B   0.888799601082317   0.444354454952406   0.624802073004965   1.0000000
B2   B   0.055667334241110   0.444343265225712   0.125264219450254   1.0000000
B2   B   0.222381111321840   0.944731097032381   0.125359052931874   1.0000000
B2   B   0.555543284898007   0.944438309115667   0.125246089380717   1.0000000
B2   B   0.388967557511546   0.444241783681456   0.128561940249537   1.0000000
B2   B   0.888881660038957   0.944486559439842   0.125212365955345   1.0000000
B2   B   0.721902826561228   0.444309830127378   0.125324435076497   1.0000000
B2   B   0.222381111321840   0.610983347622795   0.624640947068127   1.0000000
B2   B   0.055713829235031   0.111277196772442   0.624585415365335   1.0000000
B2   B   0.555278182844926   0.610822314170234   0.623942910194505   1.0000000
B2   B   0.388985145763175   0.111448085993396   0.623978967160169   1.0000000
B2   B   0.888766886490717   0.611050109912030   0.624802699676681   1.0000000
B2   B   0.055613326767958   0.611068254453277   0.125197151187451   1.0000000
B2   B   0.722158132639672   0.111093356550910   0.624775282552947   1.0000000
B2   B   0.222467811532999   0.111523209124075   0.126125787754948   1.0000000
B2   B   0.388985145763175   0.610870393103121   0.126021032839832   1.0000000
B2   B   0.721902826561228   0.610926329767185   0.125324435076497   1.0000000
B2   B   0.555488915896788   0.111188671150435   0.125396960243940   1.0000000
B2   B   0.388985145763175   0.610870393103121   0.623978967160169   1.0000000
B2   B   0.888916237321504   0.111124785327424   0.125215608871208   1.0000000
B2   B   0.222346542694698   0.777839938014017   0.624779258894222   1.0000000
B2   B   0.055713829235031   0.277769965795925   0.624585415365335   1.0000000
B2   B   0.388967557511546   0.278059107163427   0.621438059750463   1.0000000
B2   B   0.555488915896788   0.777633578079688   0.624603039756060   1.0000000
B2   B   0.888799601082317   0.777778479463247   0.624802073004965   1.0000000
B2   B   0.722050201542276   0.277732199626984   0.624710148796322   1.0000000
B2   B   0.055613326767958   0.777878405648018   0.125197151187451   1.0000000
B2   B   0.388973506649995   0.777715421905718   0.125284122078713   1.0000000
B2   B   0.222504302527228   0.277918817930282   0.126777434654267   1.0000000
B2   B   0.722050201542276   0.777651335248628   0.125289851203678   1.0000000
B2   B   0.555278182844926   0.277789202008027   0.126057089805496   1.0000000
B2   B   0.888881660038957   0.277728433932450   0.125212365955345   1.0000000
B2   B   0.055667334241110   0.444343265225712   0.624735780549747   1.0000000
B2   B   0.222381111321840   0.944731097032381   0.624640947068127   1.0000000
B2   B   0.555543284898007   0.944438309115667   0.624753910619283   1.0000000
B2   B   0.388967557511546   0.444241783681456   0.621438059750463   1.0000000
B2   B   0.888881660038957   0.944486559439842   0.624787634044655   1.0000000
B2   B   0.055667334241110   0.944657402348726   0.125264219450254   1.0000000
B2   B   0.721902826561228   0.444309830127378   0.624675564923503   1.0000000
B2   B   0.388973506649995   0.944591418077613   0.125284122078713   1.0000000
B2   B   0.222467811532999   0.444277935742260   0.126125787754948   1.0000000
B2   B   0.222381111321840   0.610983347622795   0.125359052931874   1.0000000
B2   B   0.555045132530353   0.444189232931841   0.126357578897485   1.0000000
B2   B   0.722158132639672   0.944398109422098   0.125224717447053   1.0000000
B2   B   0.888799601082317   0.444354454952406   0.125197926995035   1.0000000
B2   B   0.055613326767958   0.611068254453277   0.624802848812549   1.0000000
B2   B   0.222467811532999   0.111523209124075   0.623874212245052   1.0000000
B2   B   0.721902826561228   0.610926329767185   0.624675564923503   1.0000000
B2   B   0.555488915896788   0.111188671150435   0.624603039756060   1.0000000
B2   B   0.888916237321504   0.111124785327424   0.624784391128792   1.0000000


