data_1
_audit_creation_method   'vasp2cif'
_cell_length_a    14.93631414619966
_cell_length_b    14.936314146199727
_cell_length_c    13.341276283792837
_cell_angle_alpha    90.0
_cell_angle_beta    90.0
_cell_angle_gamma    119.99999999999984

_symmetry_space_group_name_H-M    'P 1'
loop_
_atom_site_label
_atom_site_type_symbol
_atom_site_fract_x
_atom_site_fract_y
_atom_site_fract_z
_atom_site_occupancy
P2   P   0.504270889074887   0.418802111204108   0.375000000000000   1.0000000
N2   N   0.111364584943574   0.055701696663468   0.124943086954905   1.0000000
N2   N   0.611443880360492   0.555779852454390   0.124024522703650   1.0000000
N2   N   0.444698458719253   0.055683969042485   0.124930148263283   1.0000000
N2   N   0.944711587985413   0.555671865770343   0.124920602709072   1.0000000
N2   N   0.778007232630492   0.055670282981917   0.124903168838652   1.0000000
N2   N   0.111347667430261   0.722340500381801   0.625100658299106   1.0000000
N2   N   0.444698458719253   0.722347823010099   0.625069851736727   1.0000000
N2   N   0.278021585140269   0.222361306774782   0.625203779195649   1.0000000
N2   N   0.778043663637774   0.722381026257636   0.625132890010729   1.0000000
N2   N   0.611397324487261   0.222345591966686   0.625213719667994   1.0000000
N2   N   0.944695037008641   0.222339696267747   0.625073917811422   1.0000000
N2   N   0.278026950881954   0.722332825724845   0.124910889252653   1.0000000
N2   N   0.111345967143701   0.222339650238513   0.124911655916084   1.0000000
N2   N   0.444737473587364   0.222356933569844   0.124731969268345   1.0000000
N2   N   0.611397324487261   0.722385065853925   0.124786280332006   1.0000000
N2   N   0.944711587985413   0.722373055548362   0.124920602709072   1.0000000
N2   N   0.778040674539726   0.222323413222125   0.124866406230908   1.0000000
N2   N   0.111367357341725   0.889040096975795   0.625125802592671   1.0000000
N2   N   0.444683653781009   0.889008493557183   0.625089077741557   1.0000000
N2   N   0.278021585140269   0.388993611698819   0.625203779195649   1.0000000
N2   N   0.611443880360492   0.388997361239441   0.625975477296330   1.0000000
N2   N   0.778040674539726   0.889050594650892   0.625133593769087   1.0000000
N2   N   0.944709167162547   0.388987032919186   0.625063124253280   1.0000000
N2   N   0.111364584943574   0.388996221613448   0.124943086954905   1.0000000
N2   N   0.278026950881954   0.889027458490444   0.124910889252653   1.0000000
N2   N   0.611358725243228   0.889027248953249   0.124909472330343   1.0000000
N2   N   0.444584998864951   0.388959166099141   0.123398468794091   1.0000000
N2   N   0.944709167162547   0.889055467576696   0.124936875746704   1.0000000
N2   N   0.778043663637774   0.388995970713442   0.124867109989282   1.0000000
N2   N   0.278046562992198   0.555672477572673   0.625099133170082   1.0000000
N2   N   0.111364584943574   0.055701696663468   0.625056913045059   1.0000000
N2   N   0.611443880360492   0.555779852454390   0.625975477296330   1.0000000
N2   N   0.444698458719253   0.055683969042485   0.625069851736727   1.0000000
N2   N   0.944711587985413   0.555671865770343   0.625079397290893   1.0000000
N2   N   0.111367357341724   0.555660593699253   0.124874197407335   1.0000000
N2   N   0.778007232630492   0.055670282981917   0.625096831161270   1.0000000
N2   N   0.278046562992198   0.055707418752900   0.124900866829911   1.0000000
N2   N   0.444737473587364   0.555713873350864   0.124731969268345   1.0000000
N2   N   0.778071754642421   0.555702543987913   0.124843776354861   1.0000000
N2   N   0.611358725243228   0.055664809623354   0.124909472330343   1.0000000
N2   N   0.444737473587364   0.555713873350864   0.625268030731652   1.0000000
N2   N   0.944695037008641   0.055688674074208   0.124926082188601   1.0000000
N2   N   0.278026950881954   0.722332825724845   0.625089110747341   1.0000000
N2   N   0.111345967143701   0.222339650238513   0.625088344083914   1.0000000
N2   N   0.444737473587364   0.222356933569843   0.625268030731652   1.0000000
N2   N   0.611397324487261   0.722385065853925   0.625213719667994   1.0000000
N2   N   0.944711587985413   0.722373055548362   0.625079397290893   1.0000000
N2   N   0.778040674539726   0.222323413222125   0.625133593769087   1.0000000
N2   N   0.111347667430261   0.722340500381801   0.124899341700908   1.0000000
N2   N   0.444698458719253   0.722347823010099   0.124930148263283   1.0000000
N2   N   0.278021585140269   0.222361306774782   0.124796220804344   1.0000000
N2   N   0.778043663637774   0.722381026257636   0.124867109989282   1.0000000
N2   N   0.611397324487261   0.222345591966686   0.124786280332006   1.0000000
N2   N   0.944695037008641   0.222339696267747   0.124926082188601   1.0000000
N2   N   0.111364584943574   0.388996221613448   0.625056913045059   1.0000000
N2   N   0.278026950881954   0.889027458490444   0.625089110747341   1.0000000
N2   N   0.611358725243228   0.889027248953249   0.625090527669633   1.0000000
N2   N   0.444584998864951   0.388959166099141   0.626601531205945   1.0000000
N2   N   0.944709167162547   0.889055467576696   0.625063124253280   1.0000000
N2   N   0.111367357341724   0.889040096975795   0.124874197407335   1.0000000
N2   N   0.778043663637774   0.388995970713442   0.625132890010729   1.0000000
N2   N   0.444683653781009   0.889008493557183   0.124910922258441   1.0000000
N2   N   0.278021585140269   0.388993611698819   0.124796220804344   1.0000000
N2   N   0.278046562992198   0.555672477572673   0.124900866829911   1.0000000
N2   N   0.611443880360492   0.388997361239441   0.124024522703650   1.0000000
N2   N   0.778040674539726   0.889050594650892   0.124866406230908   1.0000000
N2   N   0.944709167162547   0.388987032919186   0.124936875746704   1.0000000
N2   N   0.111367357341725   0.555660593699253   0.625125802592671   1.0000000
N2   N   0.278046562992202   0.055707418752900   0.625099133170082   1.0000000
N2   N   0.778071754642421   0.555702543987913   0.625156223645113   1.0000000
N2   N   0.611358725243228   0.055664809623354   0.625090527669633   1.0000000
N2   N   0.944695037008641   0.055688674074209   0.625073917811422   1.0000000
N2   N   0.059574665124443   0.113457355238526   0.375000000000000   1.0000000
N2   N   0.555497749845025   0.620195873885663   0.375000000000000   1.0000000
N2   N   0.388337946039794   0.107063724062497   0.375000000000000   1.0000000
N2   N   0.884275255362827   0.608804294348107   0.375000000000000   1.0000000
N2   N   0.724268513657907   0.111305665736633   0.375000000000000   1.0000000
N2   N   0.055201692714856   0.777576199782886   0.875000000000000   1.0000000
N2   N   0.388566044341705   0.777605122933460   0.875000000000000   1.0000000
N2   N   0.221925899797865   0.277629616565589   0.875000000000000   1.0000000
N2   N   0.721888775213248   0.777592432795207   0.875000000000000   1.0000000
N2   N   0.555242692243312   0.277614501208308   0.875000000000000   1.0000000
N2   N   0.888597915909926   0.277636984116077   0.875000000000000   1.0000000
N2   N   0.220334885426183   0.776834109379750   0.375000000000000   1.0000000
N2   N   0.059574665124443   0.279450643219272   0.375000000000000   1.0000000
N2   N   0.397678539491634   0.279505467190804   0.375000000000000   1.0000000
N2   N   0.555939478813377   0.781861937898746   0.375000000000000   1.0000000
N2   N   0.887202728861031   0.777112297971366   0.375000000000000   1.0000000
N2   N   0.723326533106880   0.276224797886189   0.375000000000000   1.0000000
N2   N   0.055216139558437   0.944273423134492   0.875000000000000   1.0000000
N2   N   0.388566044341705   0.944294254741586   0.875000000000000   1.0000000
N2   N   0.221893053965378   0.444294657487337   0.875000000000000   1.0000000
N2   N   0.555217797375776   0.444275565354552   0.875000000000000   1.0000000
N2   N   0.721902816917275   0.944299884648865   0.875000000000000   1.0000000
N2   N   0.888559536453826   0.444285641564422   0.875000000000000   1.0000000
N2   N   0.056495429166591   0.444701246639524   0.375000000000000   1.0000000
N2   N   0.221060641962808   0.942964170581652   0.375000000000000   1.0000000
N2   N   0.555997959479464   0.944665646406399   0.375000000000000   1.0000000
N2   N   0.397678539491634   0.451506405634181   0.375000000000000   1.0000000
N2   N   0.891213382318818   0.946292468375242   0.375000000000000   1.0000000
N2   N   0.716304163527441   0.440684996782196   0.375000000000000   1.0000000
N2   N   0.221922767567587   0.610972806888132   0.875000000000000   1.0000000
N2   N   0.055232971956390   0.110928509531330   0.875000000000000   1.0000000
N2   N   0.555242692243312   0.610961524368348   0.875000000000000   1.0000000
N2   N   0.388559548568042   0.110922643144062   0.875000000000000   1.0000000
N2   N   0.888554349624423   0.610943841478877   0.875000000000000   1.0000000
N2   N   0.053140332593957   0.610124036576165   0.375000000000000   1.0000000
N2   N   0.721902816917275   0.110936265601783   0.875000000000000   1.0000000
N2   N   0.226109428642767   0.113199849203213   0.375000000000000   1.0000000
N2   N   0.388337946039794   0.614607555310666   0.375000000000000   1.0000000
N2   N   0.716304163527441   0.608952500078587   0.375000000000000   1.0000000
N2   N   0.555939478813377   0.107410874247910   0.375000000000000   1.0000000
N2   N   0.388559548568042   0.610970238757345   0.875000000000000   1.0000000
N2   N   0.892124785069136   0.112729059201238   0.375000000000000   1.0000000
N2   N   0.221900901520677   0.777617117427019   0.875000000000000   1.0000000
N2   N   0.055232971956389   0.277637795758416   0.875000000000000   1.0000000
N2   N   0.388547768479133   0.277611856212307   0.875000000000000   1.0000000
N2   N   0.555242004072120   0.777629222756874   0.875000000000000   1.0000000
N2   N   0.888559536453826   0.777607228222744   0.875000000000000   1.0000000
N2   N   0.721888775213248   0.277629675751433   0.875000000000000   1.0000000
N2   N   0.053140332593957   0.776349629351173   0.375000000000000   1.0000000
N2   N   0.387936802783072   0.778570586470226   0.375000000000000   1.0000000
N2   N   0.228736980284156   0.281035156808729   0.375000000000000   1.0000000
N2   N   0.723326533106880   0.780435068554068   0.375000000000000   1.0000000
N2   N   0.555497749845025   0.268635209292670   0.375000000000000   1.0000000
N2   N   0.891213382318818   0.278254247276844   0.375000000000000   1.0000000
N2   N   0.055216139558438   0.444276049757285   0.875000000000000   1.0000000
N2   N   0.221922767567588   0.944283294012779   0.875000000000000   1.0000000
N2   N   0.555267812087742   0.944300572710532   0.875000000000000   1.0000000
N2   N   0.388547768479133   0.444269245600149   0.875000000000000   1.0000000
N2   N   0.888597915909926   0.944294265127152   0.875000000000000   1.0000000
N2   N   0.056495429166591   0.945127515860374   0.375000000000000   1.0000000
N2   N   0.721869140605204   0.444255373667770   0.875000000000000   1.0000000
N2   N   0.387936802783072   0.942699549646242   0.375000000000000   1.0000000
N2   N   0.226109428642767   0.446242912772902   0.375000000000000   1.0000000
N2   N   0.221060641962808   0.611429804714489   0.375000000000000   1.0000000
N2   N   0.724268513657907   0.946296181254581   0.375000000000000   1.0000000
N2   N   0.887202728861031   0.443423764222982   0.375000000000000   1.0000000
N2   N   0.055201692714856   0.610958826265272   0.875000000000000   1.0000000
N2   N   0.221893053965378   0.110931729811363   0.875000000000000   1.0000000
N2   N   0.721869140605204   0.610947100270753   0.875000000000000   1.0000000
N2   N   0.555242004072120   0.110946114648627   0.875000000000000   1.0000000
N2   N   0.888582091135611   0.110957712234472   0.875000000000000   1.0000000
B2   B   0.114672775000678   0.057440642846578   0.375000000000000   1.0000000
B2   B   0.602423018898891   0.558243692721221   0.375000000000000   1.0000000
B2   B   0.444530968233704   0.053166354837873   0.375000000000000   1.0000000
B2   B   0.941348088368854   0.554445829290538   0.375000000000000   1.0000000
B2   B   0.780668903303782   0.057001118318567   0.375000000000000   1.0000000
B2   B   0.110640811483254   0.721987072408334   0.875000000000000   1.0000000
B2   B   0.444012426850746   0.721987553736395   0.875000000000000   1.0000000
B2   B   0.277546281955235   0.222187586868737   0.875000000000000   1.0000000
B2   B   0.777281690235599   0.721949415050425   0.875000000000000   1.0000000
B2   B   0.610811985336291   0.222195841597193   0.875000000000000   1.0000000
B2   B   0.944187064252635   0.222184958825885   0.875000000000000   1.0000000
B2   B   0.276690576710862   0.722224705038622   0.375000000000000   1.0000000
B2   B   0.117293393963956   0.225313363648642   0.375000000000000   1.0000000
B2   B   0.444970800841200   0.217793525306017   0.375000000000000   1.0000000
B2   B   0.612274795558578   0.728098762841167   0.375000000000000   1.0000000
B2   B   0.941348088368854   0.720235592411666   0.375000000000000   1.0000000
B2   B   0.779987495769404   0.222373986721980   0.375000000000000   1.0000000
B2   B   0.110758043878063   0.888703225947679   0.875000000000000   1.0000000
B2   B   0.444114067601030   0.888723700467202   0.875000000000000   1.0000000
B2   B   0.277546281955235   0.388692028419837   0.875000000000000   1.0000000
B2   B   0.610764744221181   0.388683858050892   0.875000000000000   1.0000000
B2   B   0.777426787057597   0.888689694567446   0.875000000000000   1.0000000
B2   B   0.944161115994625   0.388679853963809   0.875000000000000   1.0000000
B2   B   0.114672775000678   0.390565465487445   0.375000000000000   1.0000000
B2   B   0.276690576710862   0.887799205005582   0.375000000000000   1.0000000
B2   B   0.612720627752588   0.891385664871587   0.375000000000000   1.0000000
B2   B   0.944918886390388   0.889021118026623   0.375000000000000   1.0000000
B2   B   0.774950642533503   0.387521799484725   0.375000000000000   1.0000000
B2   B   0.277517073888419   0.555496684838959   0.875000000000000   1.0000000
B2   B   0.110685323357564   0.055329652695318   0.875000000000000   1.0000000
B2   B   0.610764744221181   0.555414219503600   0.875000000000000   1.0000000
B2   B   0.444012426850746   0.055358206447676   0.875000000000000   1.0000000
B2   B   0.944122673277447   0.555480155014290   0.875000000000000   1.0000000
B2   B   0.110050127083958   0.555589015371314   0.375000000000000   1.0000000
B2   B   0.777319708197121   0.055326520765227   0.875000000000000   1.0000000
B2   B   0.278052143204140   0.054344311128719   0.375000000000000   1.0000000
B2   B   0.444970800841200   0.560510608868536   0.375000000000000   1.0000000
B2   B   0.771033988030694   0.552183660681996   0.375000000000000   1.0000000
B2   B   0.612720627752588   0.054668296214304   0.375000000000000   1.0000000
B2   B   0.444105848553300   0.555354143586340   0.875000000000000   1.0000000
B2   B   0.948219181227784   0.057645911603922   0.375000000000000   1.0000000
B2   B   0.277505844944694   0.722001313182261   0.875000000000000   1.0000000
B2   B   0.110815702465166   0.222074517899245   0.875000000000000   1.0000000
B2   B   0.444105848553300   0.222085038300335   0.875000000000000   1.0000000
B2   B   0.610811985336291   0.721949477072400   0.875000000000000   1.0000000
B2   B   0.944122673277447   0.721975851596535   0.875000000000000   1.0000000
B2   B   0.777426787057597   0.222070425823445   0.875000000000000   1.0000000
B2   B   0.108932755758518   0.721133044545918   0.375000000000000   1.0000000
B2   B   0.444530968233704   0.724697946729177   0.375000000000000   1.0000000
B2   B   0.286861920349089   0.227133400680908   0.375000000000000   1.0000000
B2   B   0.774950642533503   0.720762176382101   0.375000000000000   1.0000000
B2   B   0.612274795558578   0.217509366050784   0.375000000000000   1.0000000
B2   B   0.948219181227784   0.223906602957212   0.375000000000000   1.0000000
B2   B   0.110685323357564   0.388689003995547   0.875000000000000   1.0000000
B2   B   0.277505844944694   0.888837865095778   0.875000000000000   1.0000000
B2   B   0.610841490156181   0.888821755559466   0.875000000000000   1.0000000
B2   B   0.444032142959735   0.388682738146509   0.875000000000000   1.0000000
B2   B   0.944161115994625   0.888814595364126   0.875000000000000   1.0000000
B2   B   0.110050127083958   0.887794445045989   0.375000000000000   1.0000000
B2   B   0.777281690235599   0.388665608518477   0.875000000000000   1.0000000
B2   B   0.444466244496779   0.888899788915059   0.375000000000000   1.0000000
B2   B   0.286861920349089   0.393061853001495   0.375000000000000   1.0000000
B2   B   0.278052143204140   0.557041165408748   0.375000000000000   1.0000000
B2   B   0.602423018898891   0.377512659511007   0.375000000000000   1.0000000
B2   B   0.779987495769404   0.890946842380761   0.375000000000000   1.0000000
B2   B   0.944918886390388   0.389231101697115   0.375000000000000   1.0000000
B2   B   0.110758043878062   0.555388151263711   0.875000000000000   1.0000000
B2   B   0.277517073888419   0.055353722382834   0.875000000000000   1.0000000
B2   B   0.777352917848237   0.555343125590785   0.875000000000000   1.0000000
B2   B   0.610841490156181   0.055353067929990   0.875000000000000   1.0000000
B2   B   0.944187064252635   0.055335438760087   0.875000000000000   1.0000000
B2   B   0.055831810914175   0.111235114999012   0.125029652245007   1.0000000
B2   B   0.555904909897965   0.611118751463758   0.124976589635599   1.0000000
B2   B   0.389220247501369   0.111401178120990   0.125096277462471   1.0000000
B2   B   0.889090370974120   0.611211852153753   0.125055116313916   1.0000000
B2   B   0.722433775691067   0.111184638825563   0.124952056604461   1.0000000
B2   B   0.055749517840852   0.777852171297392   0.625042873942687   1.0000000
B2   B   0.389135587593526   0.777793785537737   0.625013522122236   1.0000000
B2   B   0.222679197902765   0.278006265618032   0.624882491050581   1.0000000
B2   B   0.722401266315234   0.777766679124934   0.625019860533498   1.0000000
B2   B   0.555904909897965   0.278119491767500   0.625023410364391   1.0000000
B2   B   0.889197480971545   0.277921876283884   0.625037124201596   1.0000000
B2   B   0.222490314338177   0.777911823835743   0.124956504794412   1.0000000
B2   B   0.055831810914175   0.277930029248501   0.125029652245007   1.0000000
B2   B   0.389263908540001   0.278154130269675   0.125056708098209   1.0000000
B2   B   0.555829483421878   0.777829303425836   0.125012933196447   1.0000000
B2   B   0.889081406190560   0.777873310385390   0.125033705060515   1.0000000
B2   B   0.722401266315234   0.277967920523640   0.124980139466524   1.0000000
B2   B   0.055796837797222   0.944666510676160   0.625003533122442   1.0000000
B2   B   0.389135587593526   0.944675135389175   0.625013522122236   1.0000000
B2   B   0.222588558358945   0.444519144039015   0.624887805001894   1.0000000
B2   B   0.555720154133861   0.444526743733595   0.623837945316988   1.0000000
B2   B   0.722433775691067   0.944582470198836   0.625047943395525   1.0000000
B2   B   0.889081406190560   0.444541429138541   0.624966294939481   1.0000000
B2   B   0.055796837797222   0.444463660454425   0.124996466877541   1.0000000
B2   B   0.222592136501619   0.944714482692607   0.124975078395383   1.0000000
B2   B   0.555866199527680   0.944599766430504   0.124972787127131   1.0000000
B2   B   0.389263908540001   0.444443111603665   0.125056708098209   1.0000000
B2   B   0.889197480971545   0.944608938021037   0.124962875798377   1.0000000
B2   B   0.722253401770853   0.444457312687168   0.124956920453139   1.0000000
B2   B   0.222592136501619   0.611210987142287   0.625024921604620   1.0000000
B2   B   0.055831810914175   0.111235114999012   0.624970347754985   1.0000000
B2   B   0.555904909897965   0.611118751463758   0.625023410364391   1.0000000
B2   B   0.389220247501369   0.111401178120990   0.624903722537520   1.0000000
B2   B   0.889090370974120   0.611211852153753   0.624944883686087   1.0000000
B2   B   0.055749517840852   0.611230679876774   0.124957126057354   1.0000000
B2   B   0.722433775691067   0.111184638825563   0.625047943395525   1.0000000
B2   B   0.222588558358950   0.111402747653259   0.125112194998119   1.0000000
B2   B   0.389220247501369   0.611152402713731   0.125096277462471   1.0000000
B2   B   0.722253401770853   0.611129422417018   0.124956920453139   1.0000000
B2   B   0.555829483421878   0.111333513329390   0.125012933196447   1.0000000
B2   B   0.389220247501369   0.611152402713731   0.624903722537520   1.0000000
B2   B   0.889143772173154   0.111238552753245   0.124980414569953   1.0000000
B2   B   0.222490314338180   0.777911823835743   0.625043495205593   1.0000000
B2   B   0.055831810914175   0.277930029248501   0.624970347754985   1.0000000
B2   B   0.389263908540001   0.278154130269675   0.624943291901794   1.0000000
B2   B   0.555829483421878   0.777829303425836   0.624987066803561   1.0000000
B2   B   0.889081406190560   0.777873310385390   0.624966294939481   1.0000000
B2   B   0.722401266315234   0.277967920523640   0.625019860533498   1.0000000
B2   B   0.055749517840852   0.777852171297392   0.124957126057354   1.0000000
B2   B   0.389135587593526   0.777793785537737   0.124986477877762   1.0000000
B2   B   0.222679197902765   0.278006265618032   0.125117508949425   1.0000000
B2   B   0.722401266315234   0.777766679124934   0.124980139466524   1.0000000
B2   B   0.555904909897965   0.278119491767500   0.124976589635599   1.0000000
B2   B   0.889197480971545   0.277921876283884   0.124962875798377   1.0000000
B2   B   0.055796837797222   0.444463660454425   0.625003533122442   1.0000000
B2   B   0.222592136501619   0.944714482692607   0.625024921604620   1.0000000
B2   B   0.555866199527680   0.944599766430504   0.625027212872890   1.0000000
B2   B   0.389263908540001   0.444443111603665   0.624943291901794   1.0000000
B2   B   0.889197480971545   0.944608938021037   0.625037124201596   1.0000000
B2   B   0.055796837797222   0.944666510676160   0.124996466877541   1.0000000
B2   B   0.722253401770853   0.444457312687168   0.625043079546887   1.0000000
B2   B   0.389135587593526   0.944675135389175   0.124986477877762   1.0000000
B2   B   0.222588558358945   0.444519144039015   0.125112194998119   1.0000000
B2   B   0.222592136501619   0.611210987142287   0.124975078395383   1.0000000
B2   B   0.555720154133861   0.444526743733595   0.126162054683008   1.0000000
B2   B   0.722433775691067   0.944582470198836   0.124952056604461   1.0000000
B2   B   0.889081406190560   0.444541429138541   0.125033705060515   1.0000000
B2   B   0.055749517840852   0.611230679876774   0.625042873942687   1.0000000
B2   B   0.222588558358945   0.111402747653259   0.624887805001894   1.0000000
B2   B   0.722253401770853   0.611129422417018   0.625043079546887   1.0000000
B2   B   0.555829483421878   0.111333513329390   0.624987066803561   1.0000000
B2   B   0.889143772173154   0.111238552753245   0.625019585430052   1.0000000


