data_1
_audit_creation_method   'vasp2cif'
_cell_length_a    17.52789999999977
_cell_length_b    17.52789999999977
_cell_length_c    15.0
_cell_angle_alpha    90.0
_cell_angle_beta    90.0
_cell_angle_gamma    119.99999999999916

_symmetry_space_group_name_H-M    'P 1'
loop_
_atom_site_label
_atom_site_type_symbol
_atom_site_fract_x
_atom_site_fract_y
_atom_site_fract_z
_atom_site_occupancy
B2   B   0.904444832237281   0.952037242226596   0.111013518310262   1.0000000
B2   B   0.904742173076697   0.095156120741641   0.111045935641031   1.0000000
B2   B   0.904732749087587   0.238146960821670   0.111047158649879   1.0000000
B2   B   0.904429114375210   0.380985633420619   0.110991232278753   1.0000000
B2   B   0.904553727907203   0.523786504716101   0.110991184998483   1.0000000
B2   B   0.904932482698983   0.666741748500089   0.111050348154220   1.0000000
B2   B   0.904562989149545   0.809341796839753   0.111040593162376   1.0000000
B2   B   0.047571007152939   0.952445755428736   0.111001114234699   1.0000000
B2   B   0.047776041539948   0.095404909780537   0.111004789115166   1.0000000
B2   B   0.047893545559721   0.238228505079728   0.110988596502394   1.0000000
B2   B   0.047779132699515   0.380935128166197   0.111005447448691   1.0000000
B2   B   0.047567321992374   0.523709095336101   0.111001868143960   1.0000000
B2   B   0.047541458513754   0.666587713383383   0.111008251879491   1.0000000
B2   B   0.047550207711661   0.809538890096301   0.110987884275818   1.0000000
B2   B   0.190309099629089   0.952249531464450   0.110988476185405   1.0000000
B2   B   0.190653588666536   0.095416270273466   0.111038188200323   1.0000000
B2   B   0.191200411650157   0.238698647846953   0.110994252135619   1.0000000
B2   B   0.191214455944518   0.381068648188851   0.110961509834752   1.0000000
B2   B   0.190644223855813   0.523788228016694   0.111054605579829   1.0000000
B2   B   0.190303574312712   0.666624862956431   0.111059120745087   1.0000000
B2   B   0.190375255438316   0.809480283549536   0.110986605606748   1.0000000
B2   B   0.333341416541006   0.952357945834508   0.111007729852203   1.0000000
B2   B   0.333045360164185   0.094771015891134   0.111062481350918   1.0000000
B2   B   0.333722534581211   0.237613288023768   0.111062561857182   1.0000000
B2   B   0.335387326702404   0.381985855086905   0.111032266733789   1.0000000
B2   B   0.333730421776409   0.524682892291629   0.111059540810368   1.0000000
B2   B   0.333039494136943   0.666828864976883   0.111072605271405   1.0000000
B2   B   0.333342152032072   0.809562881179940   0.111052556246970   1.0000000
B2   B   0.476310887156065   0.952444784453575   0.111001673519471   1.0000000
B2   B   0.476248870525916   0.096084423994360   0.111000626712644   1.0000000
B2   B   0.475295975574442   0.239080760334942   0.111050179851066   1.0000000
B2   B   0.475311745860873   0.664788691309587   0.111047772927884   1.0000000
B2   B   0.476260746716298   0.808739627876927   0.111022319170364   1.0000000
B2   B   0.619055190886258   0.951981529637738   0.111012205745329   1.0000000
B2   B   0.619042417623064   0.095640177268946   0.110991087231249   1.0000000
B2   B   0.618988480059820   0.239424774818539   0.111013089987938   1.0000000
B2   B   0.618987835642626   0.384964661420648   0.111021022811661   1.0000000
B2   B   0.619008176093746   0.662604400372516   0.111006415095945   1.0000000
B2   B   0.619020231122196   0.808148171430464   0.110985766127873   1.0000000
B2   B   0.761732879737860   0.951825924782216   0.111007635266871   1.0000000
B2   B   0.761833821747824   0.095203161052245   0.111052192035057   1.0000000
B2   B   0.761705882093010   0.238471830944074   0.111047989900762   1.0000000
B2   B   0.761112381758125   0.381591969641226   0.111021818141569   1.0000000
B2   B   0.761342223274968   0.524672751639131   0.111013336678382   1.0000000
B2   B   0.761345115027480   0.665243522747979   0.111028381006124   1.0000000
B2   B   0.761133770141071   0.808126775440227   0.111009982435538   1.0000000
C2   C   0.475726515595153   0.381931749372927   0.111197533412498   1.0000000
C2   C   0.475709194070133   0.522358931475686   0.111218489686450   1.0000000
C2   C   0.517829505030494   0.473221762281502   0.111333989367819   1.0000000
N2   N   0.952558493646857   0.905010152088992   0.111003517913789   1.0000000
N2   N   0.952575812848391   0.047749379580731   0.111004260467079   1.0000000
N2   N   0.952697780226326   0.190634522479653   0.111020805871530   1.0000000
N2   N   0.952566773299512   0.333397746785946   0.111003745702024   1.0000000
N2   N   0.952550657311176   0.476123231761165   0.110955753696337   1.0000000
N2   N   0.952839995072928   0.619114505036961   0.110994375378598   1.0000000
N2   N   0.952844509122663   0.762292477307059   0.111021572202311   1.0000000
N2   N   0.095421440076722   0.905033514535989   0.110965236445807   1.0000000
N2   N   0.095684182447751   0.048105427687039   0.110997389120572   1.0000000
N2   N   0.096108462487886   0.191087130168243   0.110976611037688   1.0000000
N2   N   0.096113949340634   0.333584782662070   0.110952752117512   1.0000000
N2   N   0.095676859153002   0.476146105174338   0.111003956896614   1.0000000
N2   N   0.095415851641864   0.618964579873338   0.111008638223580   1.0000000
N2   N   0.095447738731044   0.762013687007075   0.110970793916468   1.0000000
N2   N   0.238211365864076   0.904894183608186   0.110961350473688   1.0000000
N2   N   0.238158594344367   0.047818806339798   0.111028377339216   1.0000000
N2   N   0.239067012166892   0.191417604070935   0.111004232834596   1.0000000
N2   N   0.240279029604740   0.334419199351509   0.110935735811782   1.0000000
N2   N   0.239070371508443   0.476213438577041   0.110996824008689   1.0000000
N2   N   0.238149808963399   0.618897124243323   0.111065860217839   1.0000000
N2   N   0.238209139243689   0.761891110109244   0.111020893737706   1.0000000
N2   N   0.381019383368115   0.904798751878174   0.111005859954500   1.0000000
N2   N   0.380947362407738   0.047826865185323   0.111009184608947   1.0000000
N2   N   0.380607942355501   0.190434949894819   0.111045347977311   1.0000000
N2   N   0.383722513693555   0.334426843231027   0.111083179899469   1.0000000
N2   N   0.383713113950216   0.477864674668731   0.111064651048755   1.0000000
N2   N   0.380615781634737   0.618744753089578   0.111052366237304   1.0000000
N2   N   0.380949061757943   0.761689453620602   0.111043924001651   1.0000000
N2   N   0.523650683288770   0.904209418984692   0.110990445080538   1.0000000
N2   N   0.523643099293785   0.048012139596475   0.110965168697700   1.0000000
N2   N   0.523268594905334   0.191891764244211   0.110985748637941   1.0000000
N2   N   0.520467148859472   0.335570133826595   0.111092308697115   1.0000000
N2   N   0.520475975392886   0.613473090555414   0.111088492899177   1.0000000
N2   N   0.523289491372115   0.759956766005718   0.110982020458527   1.0000000
N2   N   0.666273120388093   0.903875866343308   0.110974283609967   1.0000000
N2   N   0.666434177008707   0.047505708542442   0.111003405952049   1.0000000
N2   N   0.666250431331861   0.190961698320841   0.110999308522437   1.0000000
N2   N   0.665270261929514   0.334051649578780   0.110996188485501   1.0000000
N2   N   0.668697440129925   0.475997811108681   0.110921652908432   1.0000000
N2   N   0.668701949160265   0.621260076943170   0.110913536915511   1.0000000
N2   N   0.665294711817589   0.759804664375945   0.110974539380534   1.0000000
N2   N   0.809110541877968   0.904191668597895   0.110994160143285   1.0000000
N2   N   0.809431909120172   0.047446895034165   0.111030402100171   1.0000000
N2   N   0.809421302367573   0.190558617613708   0.111050525761859   1.0000000
N2   N   0.809087919905269   0.333493709910953   0.111006335353041   1.0000000
N2   N   0.809702500058125   0.476361349642543   0.111003266870636   1.0000000
N2   N   0.810881933359337   0.619724402554063   0.111048167953773   1.0000000
N2   N   0.809710489843862   0.761925776468432   0.111025016337163   1.0000000


