data_1
_audit_creation_method   'vasp2cif'
_cell_length_a    14.93631414619966
_cell_length_b    14.936314146199727
_cell_length_c    13.341276283792837
_cell_angle_alpha    90.0
_cell_angle_beta    90.0
_cell_angle_gamma    119.99999999999984

_symmetry_space_group_name_H-M    'P 1'
loop_
_atom_site_label
_atom_site_type_symbol
_atom_site_fract_x
_atom_site_fract_y
_atom_site_fract_z
_atom_site_occupancy
C2   C   0.444682473653658   0.386902989548822   0.375000000000000   1.0000000
C2   C   0.548189952100338   0.441373766969375   0.375000000000000   1.0000000
N2   N   0.111069356532073   0.055547370250154   0.124886158546037   1.0000000
N2   N   0.611127094150904   0.555578423072253   0.124806275376261   1.0000000
N2   N   0.444442285050127   0.055578722283939   0.124974089112831   1.0000000
N2   N   0.944419020441877   0.555557283241384   0.124948830423331   1.0000000
N2   N   0.777775987229392   0.055548262350374   0.124865350452307   1.0000000
N2   N   0.111092544749450   0.722230393381886   0.625117846831438   1.0000000
N2   N   0.444449631007638   0.722219247174102   0.625091396406831   1.0000000
N2   N   0.277718173466297   0.222200709216077   0.625103243833446   1.0000000
N2   N   0.777782481827105   0.722251825596301   0.625133319184724   1.0000000
N2   N   0.611122043151702   0.222226072167263   0.624814586827296   1.0000000
N2   N   0.944424638540565   0.222205927627675   0.625138395818547   1.0000000
N2   N   0.277773980688071   0.722229802792237   0.124882731826566   1.0000000
N2   N   0.111061669238359   0.222194949132499   0.124868943934753   1.0000000
N2   N   0.444401421573983   0.222226560773184   0.125084694470778   1.0000000
N2   N   0.611118007374733   0.722221224785377   0.124901729032092   1.0000000
N2   N   0.944427976968489   0.722240943241134   0.124897711193324   1.0000000
N2   N   0.777775145704499   0.222208165803553   0.124908582965667   1.0000000
N2   N   0.111091564110952   0.888904772814475   0.625127437514501   1.0000000
N2   N   0.444451386472021   0.888909258388970   0.625115662170446   1.0000000
N2   N   0.277749334131159   0.388855908372367   0.625076946304320   1.0000000
N2   N   0.611127802630765   0.388929472218105   0.625417074081217   1.0000000
N2   N   0.777779870468429   0.888901337892281   0.625130162481508   1.0000000
N2   N   0.944421309268101   0.388879117393610   0.625096008994822   1.0000000
N2   N   0.111088339824404   0.388874848945698   0.124908781786948   1.0000000
N2   N   0.277773545279959   0.888912467364703   0.124876984766850   1.0000000
N2   N   0.611115639516169   0.888894609841541   0.124889976019176   1.0000000
N2   N   0.444372776215388   0.388843503100567   0.124456604062362   1.0000000
N2   N   0.944433073378706   0.888907263233040   0.124863463920294   1.0000000
N2   N   0.777764877739396   0.388883789326906   0.125169947886136   1.0000000
N2   N   0.277772115254065   0.555542695760542   0.625092376834918   1.0000000
N2   N   0.111069356532073   0.055547370250154   0.625113841453963   1.0000000
N2   N   0.611127094150904   0.555578423072253   0.625193724623738   1.0000000
N2   N   0.444442285050127   0.055578722283939   0.625025910887169   1.0000000
N2   N   0.944419020441877   0.555557283241384   0.625051169576669   1.0000000
N2   N   0.111090160504367   0.555550835414529   0.124882668100500   1.0000000
N2   N   0.777775987229392   0.055548262350374   0.625134649547693   1.0000000
N2   N   0.277750624149919   0.055569741247938   0.124890280740980   1.0000000
N2   N   0.444448824732674   0.555535154182595   0.124903504868023   1.0000000
N2   N   0.777770887441639   0.555585766307520   0.125100432930356   1.0000000
N2   N   0.611117701466565   0.055565967201970   0.124894554792545   1.0000000
N2   N   0.444448824732674   0.555535154182595   0.625096495131977   1.0000000
N2   N   0.944423044174971   0.055547524281737   0.124856586371855   1.0000000
N2   N   0.277773980688071   0.722229802792237   0.625117268173433   1.0000000
N2   N   0.111061669238359   0.222194949132499   0.625131056065246   1.0000000
N2   N   0.444401421573983   0.222226560773184   0.624915305529222   1.0000000
N2   N   0.611118007374733   0.722221224785377   0.625098270967907   1.0000000
N2   N   0.944427976968489   0.722240943241134   0.625102288806674   1.0000000
N2   N   0.777775145704499   0.222208165803553   0.625091417034334   1.0000000
N2   N   0.111092544749450   0.722230393381886   0.124882153168562   1.0000000
N2   N   0.444449631007638   0.722219247174102   0.124908603593169   1.0000000
N2   N   0.277718173466297   0.222200709216077   0.124896756166554   1.0000000
N2   N   0.777782481827105   0.722251825596301   0.124866680815275   1.0000000
N2   N   0.611122043151702   0.222226072167263   0.125185413172704   1.0000000
N2   N   0.944424638540565   0.222205927627675   0.124861604181454   1.0000000
N2   N   0.111088339824404   0.388874848945698   0.625091218213053   1.0000000
N2   N   0.277773545279959   0.888912467364703   0.625123015233150   1.0000000
N2   N   0.611115639516169   0.888894609841541   0.625110023980824   1.0000000
N2   N   0.444372776215388   0.388843503100567   0.625543395937638   1.0000000
N2   N   0.944433073378706   0.888907263233040   0.625136536079706   1.0000000
N2   N   0.111091564110952   0.888904772814475   0.124872562485499   1.0000000
N2   N   0.777764877739396   0.388883789326906   0.624830052113863   1.0000000
N2   N   0.444451386472021   0.888909258388970   0.124884337829553   1.0000000
N2   N   0.277749334131159   0.388855908372367   0.124923053695680   1.0000000
N2   N   0.277772115254065   0.555542695760542   0.124907623165082   1.0000000
N2   N   0.611127802630765   0.388929472218105   0.124582925918783   1.0000000
N2   N   0.777779870468429   0.888901337892281   0.124869837518493   1.0000000
N2   N   0.944421309268101   0.388879117393610   0.124903991005177   1.0000000
N2   N   0.111090160504367   0.555550835414529   0.625117331899500   1.0000000
N2   N   0.277750624149919   0.055569741247938   0.625109719259020   1.0000000
N2   N   0.777770887441639   0.555585766307520   0.624899567069644   1.0000000
N2   N   0.611117701466565   0.055565967201970   0.625105445207455   1.0000000
N2   N   0.944423044174971   0.055547524281737   0.625143413628144   1.0000000
N2   N   0.055316245591943   0.111033234103360   0.375000000000000   1.0000000
N2   N   0.555709094540803   0.611735701951927   0.375000000000000   1.0000000
N2   N   0.388120851298451   0.110991265653107   0.375000000000000   1.0000000
N2   N   0.890176194477476   0.612376037886448   0.375000000000000   1.0000000
N2   N   0.721738613703472   0.110686720694520   0.375000000000000   1.0000000
N2   N   0.055561222542021   0.777785136059727   0.875000000000000   1.0000000
N2   N   0.388887583822882   0.777786561368038   0.875000000000000   1.0000000
N2   N   0.222226331762021   0.277793006096268   0.875000000000000   1.0000000
N2   N   0.722219864477109   0.777785608491590   0.875000000000000   1.0000000
N2   N   0.555554764443885   0.277784151894359   0.875000000000000   1.0000000
N2   N   0.888894192874096   0.277795023147846   0.875000000000000   1.0000000
N2   N   0.222240785329519   0.777340041982525   0.375000000000000   1.0000000
N2   N   0.055268811949948   0.277622144055780   0.375000000000000   1.0000000
N2   N   0.388307033225769   0.279517476269109   0.375000000000000   1.0000000
N2   N   0.555236047927322   0.777632500508227   0.375000000000000   1.0000000
N2   N   0.889589220525337   0.778740311126570   0.375000000000000   1.0000000
N2   N   0.721440423298187   0.276662083870774   0.375000000000000   1.0000000
N2   N   0.055558670253903   0.944454263620191   0.875000000000000   1.0000000
N2   N   0.388888534916334   0.944447123575609   0.875000000000000   1.0000000
N2   N   0.222224922471858   0.444460341867736   0.875000000000000   1.0000000
N2   N   0.555553737615178   0.444457498558639   0.875000000000000   1.0000000
N2   N   0.722219228751867   0.944453305909834   0.875000000000000   1.0000000
N2   N   0.888899235697928   0.444459507312636   0.875000000000000   1.0000000
N2   N   0.055953923653699   0.444245704634771   0.375000000000000   1.0000000
N2   N   0.222229221863756   0.944335507716709   0.375000000000000   1.0000000
N2   N   0.555039359385953   0.943895115086812   0.375000000000000   1.0000000
N2   N   0.389214254328547   0.441442382047523   0.375000000000000   1.0000000
N2   N   0.888904228706392   0.944733351142978   0.375000000000000   1.0000000
N2   N   0.732011153749822   0.450130979084656   0.375000000000000   1.0000000
N2   N   0.222222997891216   0.611121512833478   0.875000000000000   1.0000000
N2   N   0.055558798897856   0.111121644643219   0.875000000000000   1.0000000
N2   N   0.555550133087678   0.611119111906277   0.875000000000000   1.0000000
N2   N   0.388890158953141   0.111113651836140   0.875000000000000   1.0000000
N2   N   0.888898078060532   0.611120238971107   0.875000000000000   1.0000000
N2   N   0.055868811958309   0.610990835842243   0.375000000000000   1.0000000
N2   N   0.722218690372334   0.111120666335770   0.875000000000000   1.0000000
N2   N   0.222519531590771   0.111606878450110   0.375000000000000   1.0000000
N2   N   0.388916074661821   0.609546018205701   0.375000000000000   1.0000000
N2   N   0.722986086535649   0.613184172687190   0.375000000000000   1.0000000
N2   N   0.554774323665713   0.110111995344617   0.375000000000000   1.0000000
N2   N   0.388885909915852   0.611122498904123   0.875000000000000   1.0000000
N2   N   0.888611974919951   0.111060326394979   0.375000000000000   1.0000000
N2   N   0.222224535687154   0.777783394563650   0.875000000000000   1.0000000
N2   N   0.055560536780973   0.277794155804596   0.875000000000000   1.0000000
N2   N   0.388891025943684   0.277788829285510   0.875000000000000   1.0000000
N2   N   0.555550359786492   0.777785280089187   0.875000000000000   1.0000000
N2   N   0.888893450868607   0.777787823301715   0.875000000000000   1.0000000
N2   N   0.722224488362186   0.277790297865662   0.875000000000000   1.0000000
N2   N   0.056135266611664   0.778147510921535   0.375000000000000   1.0000000
N2   N   0.388677818387982   0.776862341193526   0.375000000000000   1.0000000
N2   N   0.221287054862046   0.277204806627154   0.375000000000000   1.0000000
N2   N   0.722298617954588   0.778464650864129   0.375000000000000   1.0000000
N2   N   0.554839771833151   0.277357132545574   0.375000000000000   1.0000000
N2   N   0.888642938713172   0.277574048617008   0.375000000000000   1.0000000
N2   N   0.055561486399359   0.444460051973179   0.875000000000000   1.0000000
N2   N   0.222224296282953   0.944449524415729   0.875000000000000   1.0000000
N2   N   0.555550999737451   0.944451614468458   0.875000000000000   1.0000000
N2   N   0.388889536360519   0.444461620669899   0.875000000000000   1.0000000
N2   N   0.888892374404335   0.944455480184389   0.875000000000000   1.0000000
N2   N   0.055976976805818   0.944933062256524   0.375000000000000   1.0000000
N2   N   0.722230418217607   0.444457694865992   0.875000000000000   1.0000000
N2   N   0.388427790261788   0.943784172332580   0.375000000000000   1.0000000
N2   N   0.222838883833313   0.443945878549123   0.375000000000000   1.0000000
N2   N   0.222413704365710   0.610560387085739   0.375000000000000   1.0000000
N2   N   0.721909213318174   0.944443321931877   0.375000000000000   1.0000000
N2   N   0.889451130189072   0.444398067431514   0.375000000000000   1.0000000
N2   N   0.055563041587821   0.611119224694123   0.875000000000000   1.0000000
N2   N   0.222224686126256   0.111119750400865   0.875000000000000   1.0000000
N2   N   0.722222718584747   0.611118605745964   0.875000000000000   1.0000000
N2   N   0.555551156911743   0.111114494099690   0.875000000000000   1.0000000
N2   N   0.888891599069116   0.111122889564109   0.875000000000000   1.0000000
B2   B   0.111679733363826   0.056107192071486   0.375000000000000   1.0000000
B2   B   0.611797172374109   0.555877217076210   0.375000000000000   1.0000000
B2   B   0.444171072499897   0.055905785756863   0.375000000000000   1.0000000
B2   B   0.944354448420786   0.555399498896477   0.375000000000000   1.0000000
B2   B   0.777241871464796   0.055646349132524   0.375000000000000   1.0000000
B2   B   0.111106803528133   0.722222626675304   0.875000000000000   1.0000000
B2   B   0.444444237975980   0.722225731437056   0.875000000000000   1.0000000
B2   B   0.277857876495673   0.222263992232320   0.875000000000000   1.0000000
B2   B   0.777745635972543   0.722165399362383   0.875000000000000   1.0000000
B2   B   0.611089216914321   0.222274255394339   0.875000000000000   1.0000000
B2   B   0.944430316471122   0.222252057282543   0.875000000000000   1.0000000
B2   B   0.277737406220981   0.721720474933369   0.375000000000000   1.0000000
B2   B   0.110566802702084   0.221948867152530   0.375000000000000   1.0000000
B2   B   0.448878830303908   0.224813538240346   0.375000000000000   1.0000000
B2   B   0.611062120744141   0.722520699472188   0.375000000000000   1.0000000
B2   B   0.945058322261418   0.722889433032454   0.375000000000000   1.0000000
B2   B   0.776728982166219   0.222137220666945   0.375000000000000   1.0000000
B2   B   0.111131728809930   0.888900117736042   0.875000000000000   1.0000000
B2   B   0.444449537659058   0.888925349016346   0.875000000000000   1.0000000
B2   B   0.277828231139497   0.388910065760852   0.875000000000000   1.0000000
B2   B   0.611095958608048   0.388877534204920   0.875000000000000   1.0000000
B2   B   0.777759172497050   0.888877546310559   0.875000000000000   1.0000000
B2   B   0.944409715061793   0.388906275542258   0.875000000000000   1.0000000
B2   B   0.111402074262998   0.388646505120633   0.375000000000000   1.0000000
B2   B   0.277780420883987   0.888704687262528   0.375000000000000   1.0000000
B2   B   0.610665022167515   0.888809739888673   0.375000000000000   1.0000000
B2   B   0.944882235676678   0.889494965287641   0.375000000000000   1.0000000
B2   B   0.776371619460405   0.386846860656222   0.375000000000000   1.0000000
B2   B   0.277791956427183   0.555566984231011   0.875000000000000   1.0000000
B2   B   0.111153423650584   0.055581652608222   0.875000000000000   1.0000000
B2   B   0.611091564900979   0.555489539239479   0.875000000000000   1.0000000
B2   B   0.444471587786129   0.055613755529807   0.875000000000000   1.0000000
B2   B   0.944406623354158   0.555538608742996   0.875000000000000   1.0000000
B2   B   0.111234991079662   0.555287514165967   0.375000000000000   1.0000000
B2   B   0.777753018612519   0.055583619676050   0.875000000000000   1.0000000
B2   B   0.278429387161657   0.055950319461373   0.375000000000000   1.0000000
B2   B   0.445257564229047   0.553983361175389   0.375000000000000   1.0000000
B2   B   0.777774611560895   0.557317456515060   0.375000000000000   1.0000000
B2   B   0.610188956281226   0.055540521245491   0.375000000000000   1.0000000
B2   B   0.444462998734350   0.555539921145115   0.875000000000000   1.0000000
B2   B   0.944247959133403   0.055683740661608   0.375000000000000   1.0000000
B2   B   0.277783937802867   0.722240622391590   0.875000000000000   1.0000000
B2   B   0.111144738404497   0.222251541779233   0.875000000000000   1.0000000
B2   B   0.444510760581889   0.222274766550058   0.875000000000000   1.0000000
B2   B   0.611093585894099   0.722186674679979   0.875000000000000   1.0000000
B2   B   0.944421282652560   0.722190073913917   0.875000000000000   1.0000000
B2   B   0.777734344995667   0.222262937898860   0.875000000000000   1.0000000
B2   B   0.111245042038682   0.722057079892884   0.375000000000000   1.0000000
B2   B   0.444194657327137   0.721102783039052   0.375000000000000   1.0000000
B2   B   0.278043087276353   0.222922741425237   0.375000000000000   1.0000000
B2   B   0.778265519364758   0.723191083329227   0.375000000000000   1.0000000
B2   B   0.607976803804049   0.223718250609610   0.375000000000000   1.0000000
B2   B   0.943957473298206   0.222210754282730   0.375000000000000   1.0000000
B2   B   0.111117825562680   0.388910978241555   0.875000000000000   1.0000000
B2   B   0.277803555691948   0.888922527051261   0.875000000000000   1.0000000
B2   B   0.611094018520369   0.888901824301735   0.875000000000000   1.0000000
B2   B   0.444505286706955   0.388897130755343   0.875000000000000   1.0000000
B2   B   0.944442899205103   0.888877112491565   0.875000000000000   1.0000000
B2   B   0.111548584208613   0.889208251189693   0.375000000000000   1.0000000
B2   B   0.777721330502159   0.388893128444944   0.875000000000000   1.0000000
B2   B   0.444025310334724   0.888422603707617   0.375000000000000   1.0000000
B2   B   0.277837715202992   0.387628874468060   0.375000000000000   1.0000000
B2   B   0.278037569941024   0.554953210241310   0.375000000000000   1.0000000
B2   B   0.777676832361731   0.889240607146415   0.375000000000000   1.0000000
B2   B   0.944395152582814   0.388682619825309   0.375000000000000   1.0000000
B2   B   0.111100190006997   0.555563205091720   0.875000000000000   1.0000000
B2   B   0.277841581538308   0.055604083112930   0.875000000000000   1.0000000
B2   B   0.777726742504747   0.555496593832316   0.875000000000000   1.0000000
B2   B   0.611090700464759   0.055606005045996   0.875000000000000   1.0000000
B2   B   0.944448134072241   0.055571348187025   0.875000000000000   1.0000000
B2   B   0.055548151139439   0.111098271237473   0.125011642677668   1.0000000
B2   B   0.555641394731053   0.610960237673914   0.125141127548607   1.0000000
B2   B   0.389059475499467   0.111372298508977   0.125525337689173   1.0000000
B2   B   0.888672334042456   0.610987902876402   0.125274794398882   1.0000000
B2   B   0.722175460267234   0.111185788282582   0.125163477336518   1.0000000
B2   B   0.055489862458513   0.777775676317204   0.624952796994455   1.0000000
B2   B   0.388937244446784   0.777845177696439   0.624952886047920   1.0000000
B2   B   0.222271904867292   0.277733033399589   0.624963739548954   1.0000000
B2   B   0.722218858918125   0.777718654548793   0.624951807516413   1.0000000
B2   B   0.555658159069017   0.278010145436963   0.623158893812668   1.0000000
B2   B   0.888751083832706   0.277752890606942   0.624886387722792   1.0000000
B2   B   0.222224349000296   0.777846363593438   0.125040506592902   1.0000000
B2   B   0.055505855592641   0.277740976723378   0.125017882321356   1.0000000
B2   B   0.389092279350300   0.277845185772761   0.125331019818744   1.0000000
B2   B   0.555601360886812   0.777769788705529   0.125051464129645   1.0000000
B2   B   0.888814501593052   0.777722091767611   0.125057354497803   1.0000000
B2   B   0.722039007439875   0.277802898210281   0.125684418256259   1.0000000
B2   B   0.055549878742892   0.944460601692118   0.624965660358343   1.0000000
B2   B   0.388982113298651   0.944649414515452   0.624836725067983   1.0000000
B2   B   0.222239412643827   0.444388230978904   0.624961730141473   1.0000000
B2   B   0.555621921892278   0.444241671656598   0.623863061563653   1.0000000
B2   B   0.722220620385762   0.944469377471528   0.624959754161245   1.0000000
B2   B   0.888632003031757   0.444347797237819   0.624681766494855   1.0000000
B2   B   0.055443204331875   0.444396213387291   0.125051440670232   1.0000000
B2   B   0.222283747836920   0.944568945403973   0.125089702910906   1.0000000
B2   B   0.555599111973340   0.944573473779089   0.125103376586061   1.0000000
B2   B   0.389046399847013   0.444306196953644   0.125000292174664   1.0000000
B2   B   0.888868123584101   0.944432365288217   0.125009204180267   1.0000000
B2   B   0.721889032284912   0.444262799667698   0.126058454971811   1.0000000
B2   B   0.222203754504379   0.611100853356203   0.624979928262227   1.0000000
B2   B   0.055548151139439   0.111098271237473   0.624988357322332   1.0000000
B2   B   0.555641394731053   0.610960237673914   0.624858872451394   1.0000000
B2   B   0.389059475499467   0.111372298508977   0.624474662310826   1.0000000
B2   B   0.888672334042456   0.610987902876402   0.624725205601118   1.0000000
B2   B   0.055421532115694   0.611066458174039   0.125067918697129   1.0000000
B2   B   0.722175460267234   0.111185788282582   0.624836522663482   1.0000000
B2   B   0.222300993083503   0.111170693450514   0.125133815053252   1.0000000
B2   B   0.388962719815269   0.611052287755259   0.125062801583374   1.0000000
B2   B   0.722100420759471   0.610931347032923   0.125321263067033   1.0000000
B2   B   0.555622147715020   0.111365511210228   0.125563093049607   1.0000000
B2   B   0.388962719815269   0.611052287755259   0.624937198416626   1.0000000
B2   B   0.888841939225109   0.111108569073705   0.125023506736360   1.0000000
B2   B   0.222224349000296   0.777846363593438   0.624959493407098   1.0000000
B2   B   0.055505855592641   0.277740976723378   0.624982117678644   1.0000000
B2   B   0.389092279350300   0.277845185772761   0.624668980181255   1.0000000
B2   B   0.555601360886812   0.777769788705529   0.624948535870355   1.0000000
B2   B   0.888814501593052   0.777722091767611   0.624942645502197   1.0000000
B2   B   0.722039007439875   0.277802898210280   0.624315581743741   1.0000000
B2   B   0.055489862458513   0.777775676317204   0.125047203005544   1.0000000
B2   B   0.388937244446784   0.777845177696439   0.125047113952080   1.0000000
B2   B   0.222271904867292   0.277733033399589   0.125036260451045   1.0000000
B2   B   0.722218858918125   0.777718654548793   0.125048192483586   1.0000000
B2   B   0.555658159069017   0.278010145436963   0.126841106187331   1.0000000
B2   B   0.888751083832706   0.277752890606942   0.125113612277207   1.0000000
B2   B   0.055443204331875   0.444396213387291   0.624948559329768   1.0000000
B2   B   0.222283747836920   0.944568945403973   0.624910297089094   1.0000000
B2   B   0.555599111973340   0.944573473779089   0.624896623413937   1.0000000
B2   B   0.389046399847013   0.444306196953644   0.624999707825336   1.0000000
B2   B   0.888868123584101   0.944432365288217   0.624990795819732   1.0000000
B2   B   0.055549878742892   0.944460601692118   0.125034339641657   1.0000000
B2   B   0.721889032284912   0.444262799667698   0.623941545028189   1.0000000
B2   B   0.388982113298651   0.944649414515452   0.125163274932017   1.0000000
B2   B   0.222239412643827   0.444388230978904   0.125038269858527   1.0000000
B2   B   0.222203754504379   0.611100853356203   0.125020071737772   1.0000000
B2   B   0.555621921892278   0.444241671656598   0.126136938436348   1.0000000
B2   B   0.722220620385762   0.944469377471528   0.125040245838755   1.0000000
B2   B   0.888632003031757   0.444347797237819   0.125318233505145   1.0000000
B2   B   0.055421532115694   0.611066458174039   0.624932081302871   1.0000000
B2   B   0.222300993083503   0.111170693450514   0.624866184946749   1.0000000
B2   B   0.722100420759471   0.610931347032923   0.624678736932966   1.0000000
B2   B   0.555622147715020   0.111365511210228   0.624436906950393   1.0000000
B2   B   0.888841939225109   0.111108569073705   0.624976493263640   1.0000000


