data_1
_audit_creation_method   'vasp2cif'
_cell_length_a    17.52789999999977
_cell_length_b    17.52789999999977
_cell_length_c    15.0
_cell_angle_alpha    90.0
_cell_angle_beta    90.0
_cell_angle_gamma    119.99999999999916

_symmetry_space_group_name_H-M    'P 1'
loop_
_atom_site_label
_atom_site_type_symbol
_atom_site_fract_x
_atom_site_fract_y
_atom_site_fract_z
_atom_site_occupancy
B2   B   0.905355516749090   0.953425811832647   0.119057443427486   1.0000000
B2   B   0.904214641812727   0.095921480887354   0.119027508637474   1.0000000
B2   B   0.903777128425064   0.238769794149826   0.117655786560137   1.0000000
B2   B   0.903650369527324   0.381513401465421   0.115228546885716   1.0000000
B2   B   0.904146753238123   0.524162848658250   0.113388152038408   1.0000000
B2   B   0.905970178434245   0.667294844448922   0.114619499760009   1.0000000
B2   B   0.906947719654710   0.811300475546271   0.117606526268296   1.0000000
B2   B   0.047972260011420   0.952188126656405   0.119612725199749   1.0000000
B2   B   0.046719778097598   0.094791011755526   0.119033610118328   1.0000000
B2   B   0.046448890255741   0.237920004851512   0.115815737879080   1.0000000
B2   B   0.046950817552708   0.380818842252716   0.113057239485350   1.0000000
B2   B   0.048069011716107   0.523415929479904   0.113082267175301   1.0000000
B2   B   0.048693882937701   0.666218917975324   0.115221179105125   1.0000000
B2   B   0.048713906381482   0.809315395885358   0.117958160203818   1.0000000
B2   B   0.190844628564767   0.951452335427742   0.117954089684979   1.0000000
B2   B   0.188855932318562   0.093218760968381   0.117573281918677   1.0000000
B2   B   0.188061922527325   0.236110945917286   0.113331561483758   1.0000000
B2   B   0.189398724478544   0.379722609767945   0.107346576783794   1.0000000
B2   B   0.192135398328061   0.522452304684814   0.106246071064579   1.0000000
B2   B   0.192124938824275   0.665406532182877   0.110081552968823   1.0000000
B2   B   0.191626662491634   0.808529910337721   0.115119142228797   1.0000000
B2   B   0.333933239576897   0.951466070460339   0.115211885061278   1.0000000
B2   B   0.332858973140717   0.094193866571603   0.114601153894805   1.0000000
B2   B   0.329013689822515   0.233758576032283   0.110607121641865   1.0000000
B2   B   0.329353950468542   0.377095232803071   0.102681593843918   1.0000000
B2   B   0.337248880139276   0.520295390860426   0.097694322232953   1.0000000
B2   B   0.335917640882275   0.664230132628411   0.102268640247161   1.0000000
B2   B   0.334745939874035   0.808029415335292   0.110078948053932   1.0000000
B2   B   0.476732576454290   0.952078859150133   0.113072043062699   1.0000000
B2   B   0.475990162124019   0.096011046266207   0.113365549278180   1.0000000
B2   B   0.474681350119402   0.239853003195290   0.106549056860564   1.0000000
B2   B   0.466142517349006   0.378813905165852   0.096519816946316   1.0000000
B2   B   0.479853667889449   0.662896212737413   0.097695172649272   1.0000000
B2   B   0.477690654385532   0.808007871058609   0.106244946208729   1.0000000
B2   B   0.619326430684237   0.953190104424440   0.113071771088323   1.0000000
B2   B   0.618629318979776   0.096489699550699   0.115237108187162   1.0000000
B2   B   0.617794719390922   0.240200305756517   0.110030249770530   1.0000000
B2   B   0.615933552746615   0.384220659946362   0.101175705593564   1.0000000
B2   B   0.621346373901949   0.534011397673514   0.096516618205343   1.0000000
B2   B   0.623060242609859   0.670791506277498   0.102688297273638   1.0000000
B2   B   0.620420355675787   0.810737266416402   0.107354458511893   1.0000000
B2   B   0.762222609259217   0.953689210218716   0.115846089251117   1.0000000
B2   B   0.761373818171916   0.096365473905937   0.117679115383783   1.0000000
B2   B   0.760751281716907   0.239388515250669   0.115540610899609   1.0000000
B2   B   0.759948917569908   0.382354845084870   0.110038349410294   1.0000000
B2   B   0.760308812565759   0.525473192400475   0.106562457426020   1.0000000
B2   B   0.766403284500054   0.671138688355672   0.110625572076077   1.0000000
B2   B   0.764044696675677   0.812085103550386   0.113365889918540   1.0000000
N2   N   0.953490250261421   0.906001974954738   0.119565927178037   1.0000000
N2   N   0.951920344234098   0.048225225751078   0.119791707439132   1.0000000
N2   N   0.951256511670544   0.190927673048963   0.118268108962080   1.0000000
N2   N   0.951399193262832   0.333847354951646   0.116219519286364   1.0000000
N2   N   0.952225177903057   0.476597893186890   0.114655287560194   1.0000000
N2   N   0.953404208306673   0.619364966917242   0.114990522426256   1.0000000
N2   N   0.953908127086469   0.762655503199642   0.117577039601113   1.0000000
N2   N   0.095782988098519   0.904378648840870   0.118943342053081   1.0000000
N2   N   0.094153046385777   0.046668411745060   0.119537947496083   1.0000000
N2   N   0.093134803683194   0.189372825176649   0.116814945493163   1.0000000
N2   N   0.093821051689466   0.332792720546168   0.112008189026265   1.0000000
N2   N   0.095856870747972   0.475870283692222   0.110798044266948   1.0000000
N2   N   0.096448708884875   0.618602573945714   0.113155262315897   1.0000000
N2   N   0.096383431464201   0.761466462548467   0.116530831098438   1.0000000
N2   N   0.238687002578862   0.903775516641628   0.116529350141495   1.0000000
N2   N   0.237498626281724   0.046255173903126   0.117558813828314   1.0000000
N2   N   0.234410507057926   0.187051992902966   0.114784113017574   1.0000000
N2   N   0.234233031237790   0.330203076975697   0.107778399539951   1.0000000
N2   N   0.239454152017427   0.474626275633548   0.103128766011769   1.0000000
N2   N   0.239829999488061   0.617834195190077   0.105480273708412   1.0000000
N2   N   0.239323925999772   0.760829692347628   0.111606065383809   1.0000000
N2   N   0.381545344875033   0.903704764938451   0.113142200845924   1.0000000
N2   N   0.380784039928555   0.046754357274505   0.114971040509377   1.0000000
N2   N   0.379182210689512   0.188666130702723   0.110580834458519   1.0000000
N2   N   0.373126697180369   0.326090034085573   0.105512273740172   1.0000000
N2   N   0.381338208435232   0.469893236616017   0.095097204835885   1.0000000
N2   N   0.383519178398109   0.616627125186553   0.097091591267372   1.0000000
N2   N   0.382310358022167   0.760316600491478   0.105477493410887   1.0000000
N2   N   0.524273324883424   0.904285692948937   0.110797717436906   1.0000000
N2   N   0.523545188242229   0.047921433354516   0.114642961253052   1.0000000
N2   N   0.522636601604821   0.191583748743948   0.109858952619825   1.0000000
N2   N   0.520325038091718   0.335293732398576   0.099786275824799   1.0000000
N2   N   0.530260958669274   0.618807674291412   0.095102239801231   1.0000000
N2   N   0.525517525069930   0.760688186854360   0.103129244128183   1.0000000
N2   N   0.667348515809067   0.906314831937930   0.112024670192309   1.0000000
N2   N   0.666294237820546   0.048740430342455   0.116248475748782   1.0000000
N2   N   0.665581980863086   0.191995707293992   0.114165404235567   1.0000000
N2   N   0.664541744142296   0.335608915118910   0.106579711610491   1.0000000
N2   N   0.664868081119656   0.479830820170631   0.099790447848634   1.0000000
N2   N   0.674071868391031   0.627024696575332   0.105515005636766   1.0000000
N2   N   0.669950540221590   0.765912188228932   0.107793783458989   1.0000000
N2   N   0.810774149219557   0.907008172566541   0.116851033636421   1.0000000
N2   N   0.809211954931004   0.048882402952159   0.118292925988347   1.0000000
N2   N   0.808533560129789   0.191607871771114   0.118033824304415   1.0000000
N2   N   0.808146491092716   0.334559835724913   0.114162477722872   1.0000000
N2   N   0.808570847503058   0.477512097476849   0.109878168041648   1.0000000
N2   N   0.811495871322832   0.620971448656615   0.110596548497881   1.0000000
N2   N   0.813108288257179   0.765741004635621   0.114822781269144   1.0000000
P2   P   0.501960590173802   0.498194501044612   0.079238572380002   1.0000000


