data_1
_audit_creation_method   'vasp2cif'
_cell_length_a    17.52789999999977
_cell_length_b    17.52789999999977
_cell_length_c    15.0
_cell_angle_alpha    90.0
_cell_angle_beta    90.0
_cell_angle_gamma    119.99999999999916

_symmetry_space_group_name_H-M    'P 1'
loop_
_atom_site_label
_atom_site_type_symbol
_atom_site_fract_x
_atom_site_fract_y
_atom_site_fract_z
_atom_site_occupancy
B2   B   0.903573553964846   0.950640887990224   0.110977778602439   1.0000000
B2   B   0.905667255994191   0.094334512876811   0.111465066883618   1.0000000
B2   B   0.906373308545856   0.237273528702194   0.111626281818988   1.0000000
B2   B   0.906170685345382   0.380111985458423   0.111992035802939   1.0000000
B2   B   0.903963337059224   0.522643689205319   0.112535254746597   1.0000000
B2   B   0.900928972234682   0.664524693739501   0.111756318496583   1.0000000
B2   B   0.900360685320066   0.806080457668091   0.110623784773112   1.0000000
B2   B   0.047133562488932   0.952868159667068   0.110642997246980   1.0000000
B2   B   0.049360817776774   0.096428148227155   0.110977779792442   1.0000000
B2   B   0.049923569777410   0.238742042670049   0.111450007578654   1.0000000
B2   B   0.049174763412505   0.381128558955830   0.112280904404629   1.0000000
B2   B   0.047220830995447   0.523943566093425   0.112557213168133   1.0000000
B2   B   0.045581723030723   0.666673003620924   0.111876643265100   1.0000000
B2   B   0.045561705724533   0.809471877112849   0.110861940864353   1.0000000
B2   B   0.190529865907152   0.954440046314472   0.110861937328351   1.0000000
B2   B   0.193921252641911   0.099641058136932   0.110623782712111   1.0000000
B2   B   0.195266105581283   0.242284023333597   0.110419987850959   1.0000000
B2   B   0.193343384299003   0.382844209954334   0.111172150357231   1.0000000
B2   B   0.190034654895123   0.524963207662948   0.113065860885828   1.0000000
B2   B   0.188803387238040   0.667774451173114   0.112635940977764   1.0000000
B2   B   0.189195130300833   0.810806506037159   0.111681771459830   1.0000000
B2   B   0.333328663841077   0.954419918328276   0.111876640382101   1.0000000
B2   B   0.335477058107493   0.099072767514314   0.111756317492586   1.0000000
B2   B   0.342316219048306   0.248188580236104   0.111109331382821   1.0000000
B2   B   0.341549341145361   0.387786087332453   0.105012817051489   1.0000000
B2   B   0.332591389211699   0.527601875964039   0.106519970619749   1.0000000
B2   B   0.331159930601576   0.668841892010424   0.110611060137637   1.0000000
B2   B   0.332227200852879   0.811198297348958   0.112635939195766   1.0000000
B2   B   0.476058077822576   0.952780760455556   0.112557218464135   1.0000000
B2   B   0.477358031215678   0.096038332165776   0.112535268766600   1.0000000
B2   B   0.479864506057624   0.240592655030795   0.114628669212111   1.0000000
B2   B   0.498238347344551   0.398920906443003   0.115194723801113   1.0000000
B2   B   0.472399853024960   0.667410373039297   0.106519970290747   1.0000000
B2   B   0.475038579348053   0.809967174933880   0.113065860860824   1.0000000
B2   B   0.618873185934163   0.950826964311500   0.112280907137633   1.0000000
B2   B   0.619889672578577   0.093830928560619   0.111992043020938   1.0000000
B2   B   0.620944770676235   0.236216019643551   0.113937879503511   1.0000000
B2   B   0.622512597812064   0.377489201466933   0.117344389871404   1.0000000
B2   B   0.601080827621999   0.501763288366450   0.115194723627108   1.0000000
B2   B   0.612215570293548   0.658452256788634   0.105012814637491   1.0000000
B2   B   0.617157514775663   0.806658379313997   0.111172148522233   1.0000000
B2   B   0.761259679931945   0.950078178472590   0.111450009932653   1.0000000
B2   B   0.762728172200805   0.093628380462146   0.111626281322987   1.0000000
B2   B   0.763478248934907   0.236523374296093   0.111954604524584   1.0000000
B2   B   0.763785712736449   0.379056953950762   0.113937872926514   1.0000000
B2   B   0.759409214064207   0.520137265927381   0.114628661978111   1.0000000
B2   B   0.751813208841895   0.657685473508693   0.111109332941815   1.0000000
B2   B   0.757717632335399   0.804735558120718   0.110419988870965   1.0000000
N2   N   0.950716118834127   0.902949646066917   0.110660738103089   1.0000000
N2   N   0.953127012289160   0.046874707839839   0.111176412173852   1.0000000
N2   N   0.954164061604661   0.189949150849667   0.111557214975305   1.0000000
N2   N   0.954051363778823   0.332680892582374   0.111774997186683   1.0000000
N2   N   0.952534467004020   0.475540357182524   0.112162599769694   1.0000000
N2   N   0.950545308057954   0.618251340240908   0.111937749493758   1.0000000
N2   N   0.949846166062126   0.760468299595799   0.110821680154841   1.0000000
N2   N   0.094633211781122   0.905368553791882   0.110612254253343   1.0000000
N2   N   0.097052068852084   0.049285607658869   0.110660748610090   1.0000000
N2   N   0.098431476394897   0.192319653092535   0.111046499538740   1.0000000
N2   N   0.097498412957828   0.334151363375785   0.111843810610179   1.0000000
N2   N   0.095182135338414   0.476552593894786   0.112977158950936   1.0000000
N2   N   0.093811596964839   0.619461415803602   0.112492339706128   1.0000000
N2   N   0.093717039276965   0.762347935971768   0.111353198351314   1.0000000
N2   N   0.237653731655229   0.906284613102033   0.111353197428311   1.0000000
N2   N   0.239533443576201   0.050155611292870   0.110821669947838   1.0000000
N2   N   0.243931259892554   0.196170847968662   0.110343926855326   1.0000000
N2   N   0.243684476770658   0.338071306537235   0.109265158087014   1.0000000
N2   N   0.238058288453078   0.478014789081336   0.112660512129325   1.0000000
N2   N   0.236294472039142   0.620366274320172   0.112584408361495   1.0000000
N2   N   0.236801976164189   0.763199673278804   0.112318064610074   1.0000000
N2   N   0.380540227787397   0.906190026254160   0.112492330422127   1.0000000
N2   N   0.381750365073090   0.049456322794051   0.111937755053762   1.0000000
N2   N   0.384181303805792   0.194228863484627   0.112648818092487   1.0000000
N2   N   0.393607409202453   0.345621416830682   0.109895616419643   1.0000000
N2   N   0.382719294058622   0.484098459019439   0.097299126555872   1.0000000
N2   N   0.378082750706442   0.621919004128555   0.105929470589619   1.0000000
N2   N   0.379635524452827   0.763707386815858   0.112584415243492   1.0000000
N2   N   0.523449182422220   0.904819667724586   0.112977164218935   1.0000000
N2   N   0.524461299638475   0.047467077101979   0.112162617766690   1.0000000
N2   N   0.525848412651652   0.190300642596425   0.113718206532486   1.0000000
N2   N   0.528874743598117   0.333657502920263   0.117243376224920   1.0000000
N2   N   0.469962142400307   0.530039396342686   0.070447875982058   1.0000000
N2   N   0.515903087754562   0.617282205904376   0.097299130088868   1.0000000
N2   N   0.521986947220667   0.761943524629925   0.112660507102327   1.0000000
N2   N   0.665850391850210   0.902503371198177   0.111843809315179   1.0000000
N2   N   0.667320819907622   0.045950310603176   0.111774999897681   1.0000000
N2   N   0.668391839206307   0.188408938881403   0.112229746467461   1.0000000
N2   N   0.669849179481834   0.330152578687165   0.115707903848489   1.0000000
N2   N   0.666344432046739   0.471127031428885   0.117243371381918   1.0000000
N2   N   0.654380378358318   0.606394238947551   0.109895617727638   1.0000000
N2   N   0.661930296841763   0.756317173091349   0.109265153302013   1.0000000
N2   N   0.807682030165464   0.901570231692101   0.111046501211741   1.0000000
N2   N   0.810052618985335   0.045837721557345   0.111557218441304   1.0000000
N2   N   0.811086978477156   0.188914678953844   0.111537811565993   1.0000000
N2   N   0.811592689442597   0.331609804054694   0.112229740951461   1.0000000
N2   N   0.809701082444578   0.474153305383349   0.113718187203485   1.0000000
N2   N   0.805772970064373   0.615820447240208   0.112648817462484   1.0000000
N2   N   0.803830879875339   0.756070433770448   0.110343931607323   1.0000000


