data_1
_audit_creation_method   'vasp2cif'
_cell_length_a    17.52789999999977
_cell_length_b    17.52789999999977
_cell_length_c    15.0
_cell_angle_alpha    90.0
_cell_angle_beta    90.0
_cell_angle_gamma    119.99999999999916

_symmetry_space_group_name_H-M    'P 1'
loop_
_atom_site_label
_atom_site_type_symbol
_atom_site_fract_x
_atom_site_fract_y
_atom_site_fract_z
_atom_site_occupancy
B2   B   0.905210511389855   0.952818191640593   0.111059661124784   1.0000000
B2   B   0.904411480861701   0.095536954116842   0.111140235660683   1.0000000
B2   B   0.903900880667969   0.238478606201369   0.111127855807812   1.0000000
B2   B   0.903966783348463   0.381419991326506   0.111016404789033   1.0000000
B2   B   0.904652111295412   0.524162566152239   0.110991639005609   1.0000000
B2   B   0.904875216991942   0.666987611868321   0.111079153569229   1.0000000
B2   B   0.905762588596568   0.810165026481692   0.111053782620760   1.0000000
B2   B   0.048107674432219   0.952057135156408   0.110987700499708   1.0000000
B2   B   0.047164556177669   0.094776363487901   0.111034969502089   1.0000000
B2   B   0.046418031001563   0.237579764891906   0.111064357339076   1.0000000
B2   B   0.046886431055325   0.380637296310396   0.111110547605297   1.0000000
B2   B   0.048748426952227   0.523272041086184   0.111051672035294   1.0000000
B2   B   0.048836900697532   0.666007294433814   0.111082879158585   1.0000000
B2   B   0.048591375962983   0.809031915496307   0.111058536695638   1.0000000
B2   B   0.191143775492046   0.951583844547230   0.111018443221707   1.0000000
B2   B   0.190037417560556   0.094464458951004   0.111069990614338   1.0000000
B2   B   0.188838156785220   0.236875359179883   0.110949986658131   1.0000000
B2   B   0.188276672460250   0.379473362307061   0.110952164832219   1.0000000
B2   B   0.193136648885672   0.521836872535733   0.111007538849531   1.0000000
B2   B   0.193200053869265   0.664844247571485   0.111032659838975   1.0000000
B2   B   0.191947315662921   0.808185107104173   0.111022493542118   1.0000000
B2   B   0.334134619536622   0.951254020673413   0.110986974122511   1.0000000
B2   B   0.333209647276939   0.095348167403724   0.111036676361871   1.0000000
B2   B   0.331335767636742   0.238690213866911   0.111049117724145   1.0000000
B2   B   0.328810968502914   0.382024932606676   0.111125412772315   1.0000000
B2   B   0.337649553507384   0.515797326842442   0.111081967409949   1.0000000
B2   B   0.337941733494008   0.661993572249511   0.111028452874558   1.0000000
B2   B   0.335262622361333   0.806809267973197   0.111008010817320   1.0000000
B2   B   0.476802407476934   0.951069985371309   0.111003664298116   1.0000000
B2   B   0.475946171564552   0.095467988247279   0.110955438205935   1.0000000
B2   B   0.474842595942031   0.239599257050500   0.110992224840256   1.0000000
B2   B   0.471087308254382   0.381977233659440   0.110948547719998   1.0000000
B2   B   0.484693445384344   0.660196694392242   0.111086441283397   1.0000000
B2   B   0.478198237864811   0.806175384055079   0.110982970128238   1.0000000
B2   B   0.619321237679297   0.952927226033266   0.111075032569731   1.0000000
B2   B   0.618580606372909   0.095974335657302   0.111022307478983   1.0000000
B2   B   0.617819842610419   0.239568187144026   0.111002611903513   1.0000000
B2   B   0.616815659911160   0.383454861721667   0.110932924184511   1.0000000
B2   B   0.619366149856114   0.529370939245266   0.110964361737678   1.0000000
B2   B   0.617199596597839   0.670532661952758   0.111213785612548   1.0000000
B2   B   0.620452337333022   0.811382732008779   0.110978113531781   1.0000000
B2   B   0.762356859524492   0.953492493867016   0.111122881850194   1.0000000
B2   B   0.761472537237033   0.096029932810248   0.111137099591339   1.0000000
B2   B   0.760903442927916   0.239057752720109   0.111088631655944   1.0000000
B2   B   0.760501024985245   0.382209768022217   0.110985194445293   1.0000000
B2   B   0.760892878613805   0.525315894634803   0.111002387384977   1.0000000
B2   B   0.761713928913638   0.668990234553836   0.111065195514381   1.0000000
B2   B   0.763054146849371   0.811057384955309   0.111008960401872   1.0000000
C2   C   0.474715671805504   0.530569308546971   0.110552782379345   1.0000000
C2   C   0.517129393242724   0.485288210710774   0.110898747125165   1.0000000
N2   N   0.952975110628471   0.905099572771000   0.110989448986638   1.0000000
N2   N   0.952154299499568   0.047758114197117   0.111078089727009   1.0000000
N2   N   0.951405882316516   0.190527911191455   0.111109057212159   1.0000000
N2   N   0.951492680218245   0.333648030070845   0.111082829670189   1.0000000
N2   N   0.952704198547166   0.476615402872881   0.110975474543136   1.0000000
N2   N   0.952910482630554   0.619325725615713   0.111047269619247   1.0000000
N2   N   0.953119718184773   0.762120954198646   0.111070136930096   1.0000000
N2   N   0.095881697906226   0.904265750785147   0.110972356761284   1.0000000
N2   N   0.095020675564745   0.047131711906372   0.111003098205230   1.0000000
N2   N   0.094024567532624   0.189779039944043   0.110984006033431   1.0000000
N2   N   0.093612561511383   0.332483522861658   0.111067594761901   1.0000000
N2   N   0.096763921984400   0.475695980518846   0.111079918132861   1.0000000
N2   N   0.097187836048031   0.618445498147973   0.111048122034298   1.0000000
N2   N   0.096470251672133   0.761235617304370   0.111059969972588   1.0000000
N2   N   0.238909243367522   0.903651456658326   0.110980050107729   1.0000000
N2   N   0.238055030905829   0.047038201433223   0.111048243319422   1.0000000
N2   N   0.236643814360420   0.189690512945012   0.111045534054962   1.0000000
N2   N   0.235578195765476   0.332191841731291   0.110844275490054   1.0000000
N2   N   0.240788955142277   0.473699561772477   0.110903144840626   1.0000000
N2   N   0.241951011628168   0.616963546635959   0.111003560650106   1.0000000
N2   N   0.239966810120671   0.760147488670074   0.111006297392131   1.0000000
N2   N   0.381670156400345   0.902805722063296   0.110982237900032   1.0000000
N2   N   0.380810456588014   0.047194023761148   0.110963376268783   1.0000000
N2   N   0.379742984752859   0.191320539832046   0.111041906153755   1.0000000
N2   N   0.377003581617204   0.334817874908660   0.110993771514291   1.0000000
N2   N   0.387790243447777   0.612006828499308   0.111082932601582   1.0000000
N2   N   0.383103562795443   0.757962668324553   0.110998815480634   1.0000000
N2   N   0.524306599970789   0.902772063474947   0.111021116284694   1.0000000
N2   N   0.523415868381628   0.047202221080415   0.110954880406564   1.0000000
N2   N   0.522575572917140   0.191483789966281   0.110953976364259   1.0000000
N2   N   0.520922645522811   0.335854952775893   0.110926457912254   1.0000000
N2   N   0.526348869347118   0.758116573979582   0.110896515467498   1.0000000
N2   N   0.667415908076916   0.906097122049512   0.111071826333522   1.0000000
N2   N   0.666297099374664   0.048337250642357   0.111061996991000   1.0000000
N2   N   0.665549075853501   0.191619852147688   0.111028142004870   1.0000000
N2   N   0.664738962265622   0.335367974439605   0.110960809315449   1.0000000
N2   N   0.664956061950954   0.479337285574758   0.110939443485066   1.0000000
N2   N   0.665518577823898   0.623348753300671   0.111070647607702   1.0000000
N2   N   0.667623907120450   0.764086085459579   0.110947042878388   1.0000000
N2   N   0.810086263413260   0.905839707295556   0.111064225357648   1.0000000
N2   N   0.809362581400595   0.048458145251887   0.111157449471549   1.0000000
N2   N   0.808632465795609   0.191267804591200   0.111116036229097   1.0000000
N2   N   0.808336142489523   0.334423598658658   0.110994240859688   1.0000000
N2   N   0.808734423852104   0.477484373763794   0.110955825544411   1.0000000
N2   N   0.808917128428337   0.620457681632190   0.111040053022827   1.0000000
N2   N   0.810506335422402   0.763567580980909   0.111035413264888   1.0000000


