data_1
_audit_creation_method   'vasp2cif'
_cell_length_a    14.93631414619966
_cell_length_b    14.936314146199727
_cell_length_c    13.341276283792837
_cell_angle_alpha    90.0
_cell_angle_beta    90.0
_cell_angle_gamma    119.99999999999984

_symmetry_space_group_name_H-M    'P 1'
loop_
_atom_site_label
_atom_site_type_symbol
_atom_site_fract_x
_atom_site_fract_y
_atom_site_fract_z
_atom_site_occupancy
Al2   Al   0.481318149016894   0.407325741175113   0.375000000000000   1.0000000
N2   N   0.111300234502409   0.055645666760147   0.124859692276318   1.0000000
N2   N   0.611305783515466   0.555689706185730   0.125103150230981   1.0000000
N2   N   0.444613917206666   0.055609258486617   0.124806516786611   1.0000000
N2   N   0.944594378554487   0.555628815858437   0.125025556748845   1.0000000
N2   N   0.777964443954075   0.055648888643709   0.124996387470655   1.0000000
N2   N   0.111254577303284   0.722293955318310   0.624960510743761   1.0000000
N2   N   0.444613917206666   0.722337992053388   0.625193483213390   1.0000000
N2   N   0.277990382219620   0.222317970071666   0.624060887675620   1.0000000
N2   N   0.777950212208041   0.722321597593886   0.625201476805117   1.0000000
N2   N   0.611281129615212   0.222270090688819   0.625241896323299   1.0000000
N2   N   0.944639674556077   0.222318762230986   0.625072581427552   1.0000000
N2   N   0.277931084150898   0.722307126831184   0.124958643448236   1.0000000
N2   N   0.111324330632474   0.222328831982902   0.125049812278110   1.0000000
N2   N   0.444639832339183   0.222277240889495   0.125646234458209   1.0000000
N2   N   0.611281129615212   0.722344372259728   0.124758103676706   1.0000000
N2   N   0.944594378554487   0.722298896029377   0.125025556748845   1.0000000
N2   N   0.777955339518469   0.222300651352257   0.124917203968518   1.0000000
N2   N   0.111266474189317   0.888962321444814   0.625037242297283   1.0000000
N2   N   0.444607244128117   0.888970288730736   0.625046861142275   1.0000000
N2   N   0.277990382219620   0.389005745481279   0.624060887675620   1.0000000
N2   N   0.611305783515466   0.388949410663054   0.624896849769013   1.0000000
N2   N   0.777955339518469   0.888988021499542   0.625082796031473   1.0000000
N2   N   0.944619697053241   0.388970535619974   0.625051879413035   1.0000000
N2   N   0.111300234502409   0.388987901075591   0.124859692276318   1.0000000
N2   N   0.277931084150898   0.888957290653051   0.124958643448236   1.0000000
N2   N   0.611285849331548   0.888993742512429   0.124906701470235   1.0000000
N2   N   0.444789433533724   0.389061383433526   0.129688842939329   1.0000000
N2   N   0.944619697053241   0.888982494766598   0.124948120586961   1.0000000
N2   N   0.777950212208041   0.388961947947496   0.124798523194888   1.0000000
N2   N   0.277951533955246   0.555662087233185   0.625023968488608   1.0000000
N2   N   0.111300234502409   0.055645666760147   0.625140307723693   1.0000000
N2   N   0.611305783515466   0.555689706185730   0.624896849769013   1.0000000
N2   N   0.444613917206666   0.055609258486617   0.625193483213390   1.0000000
N2   N   0.944594378554485   0.555628815858437   0.624974443251150   1.0000000
N2   N   0.111266474189317   0.555637486077831   0.124962757702715   1.0000000
N2   N   0.777964443954075   0.055648888643709   0.625003612529349   1.0000000
N2   N   0.277951533955246   0.055622780055396   0.124976031511392   1.0000000
N2   N   0.444639832339183   0.555695924783019   0.125646234458209   1.0000000
N2   N   0.777927966449395   0.555630649891355   0.124882356642591   1.0000000
N2   N   0.611285849331548   0.055625440152447   0.124906701470235   1.0000000
N2   N   0.444639832339182   0.555695924783019   0.624353765541788   1.0000000
N2   N   0.944639674556077   0.055654245658439   0.124927418572448   1.0000000
N2   N   0.277931084150898   0.722307126831184   0.625041356551760   1.0000000
N2   N   0.111324330632474   0.222328831982902   0.624950187721898   1.0000000
N2   N   0.444639832339183   0.222277240889495   0.624353765541788   1.0000000
N2   N   0.611281129615212   0.722344372259728   0.625241896323299   1.0000000
N2   N   0.944594378554487   0.722298896029377   0.624974443251150   1.0000000
N2   N   0.777955339518469   0.222300651352257   0.625082796031473   1.0000000
N2   N   0.111254577303284   0.722293955318310   0.125039489256234   1.0000000
N2   N   0.444613917206666   0.722337992053388   0.124806516786611   1.0000000
N2   N   0.277990382219620   0.222317970071666   0.125939112324383   1.0000000
N2   N   0.777950212208041   0.722321597593886   0.124798523194888   1.0000000
N2   N   0.611281129615212   0.222270090688819   0.124758103676706   1.0000000
N2   N   0.944639674556077   0.222318762230986   0.124927418572448   1.0000000
N2   N   0.111300234502409   0.388987901075591   0.625140307723693   1.0000000
N2   N   0.277931084150898   0.888957290653051   0.625041356551760   1.0000000
N2   N   0.611285849331548   0.888993742512429   0.625093298529759   1.0000000
N2   N   0.444789433533724   0.389061383433526   0.620311157060675   1.0000000
N2   N   0.944619697053241   0.888982494766598   0.625051879413035   1.0000000
N2   N   0.111266474189317   0.888962321444814   0.124962757702715   1.0000000
N2   N   0.777950212208041   0.388961947947496   0.625201476805117   1.0000000
N2   N   0.444607244128117   0.888970288730736   0.124953138857723   1.0000000
N2   N   0.277990382219620   0.389005745481279   0.125939112324383   1.0000000
N2   N   0.277951533955246   0.555662087233185   0.124976031511392   1.0000000
N2   N   0.611305783515466   0.388949410663054   0.125103150230981   1.0000000
N2   N   0.777955339518469   0.888988021499542   0.124917203968518   1.0000000
N2   N   0.944619697053241   0.388970535619974   0.124948120586961   1.0000000
N2   N   0.111266474189317   0.555637486077831   0.625037242297283   1.0000000
N2   N   0.277951533955246   0.055622780055396   0.625023968488608   1.0000000
N2   N   0.777927966449395   0.555630649891355   0.625117643357398   1.0000000
N2   N   0.611285849331548   0.055625440152447   0.625093298529759   1.0000000
N2   N   0.944639674556077   0.055654245658439   0.625072581427552   1.0000000
N2   N   0.058309440691947   0.112628844194956   0.375000000000000   1.0000000
N2   N   0.556472991689633   0.618278961149260   0.375000000000000   1.0000000
N2   N   0.388574264936823   0.106248008704018   0.375000000000000   1.0000000
N2   N   0.886465874183533   0.609899603758441   0.375000000000000   1.0000000
N2   N   0.724257942243602   0.111401906069762   0.375000000000000   1.0000000
N2   N   0.055495685908971   0.777747394044667   0.875000000000000   1.0000000
N2   N   0.388837969018877   0.777752183771597   0.875000000000000   1.0000000
N2   N   0.222163443648591   0.277748388490962   0.875000000000000   1.0000000
N2   N   0.722166906819284   0.777748223919702   0.875000000000000   1.0000000
N2   N   0.555494260520956   0.277749353432476   0.875000000000000   1.0000000
N2   N   0.888836436117751   0.277755302375870   0.875000000000000   1.0000000
N2   N   0.221138379341020   0.777235856337173   0.375000000000000   1.0000000
N2   N   0.058309440691947   0.279013929830327   0.375000000000000   1.0000000
N2   N   0.390823878871107   0.271438819415324   0.375000000000000   1.0000000
N2   N   0.556510835483522   0.781391583809715   0.375000000000000   1.0000000
N2   N   0.888845670507202   0.778173103380292   0.375000000000000   1.0000000
N2   N   0.723863194144027   0.276728243522289   0.375000000000000   1.0000000
N2   N   0.055497562723535   0.944412794007032   0.875000000000000   1.0000000
N2   N   0.388837969018877   0.944419118580603   0.875000000000000   1.0000000
N2   N   0.222164537185186   0.444412998014154   0.875000000000000   1.0000000
N2   N   0.555478542603537   0.444405937968433   0.875000000000000   1.0000000
N2   N   0.722170605357963   0.944417646536929   0.875000000000000   1.0000000
N2   N   0.888832333818824   0.444418090963512   0.875000000000000   1.0000000
N2   N   0.056094161366162   0.444959380842260   0.375000000000000   1.0000000
N2   N   0.221420121600010   0.942832234396031   0.375000000000000   1.0000000
N2   N   0.556491687771860   0.944912510552589   0.375000000000000   1.0000000
N2   N   0.390823878871107   0.452718392789125   0.375000000000000   1.0000000
N2   N   0.890973306463606   0.946093851366859   0.375000000000000   1.0000000
N2   N   0.720695452105916   0.442253146134619   0.375000000000000   1.0000000
N2   N   0.222166541787993   0.611081618661352   0.875000000000000   1.0000000
N2   N   0.055498033724798   0.111080287166954   0.875000000000000   1.0000000
N2   N   0.555494260520956   0.611078240421815   0.875000000000000   1.0000000
N2   N   0.388836300976794   0.111089438954719   0.875000000000000   1.0000000
N2   N   0.888825623058772   0.611079478196060   0.875000000000000   1.0000000
N2   N   0.054214577771426   0.610733004772333   0.375000000000000   1.0000000
N2   N   0.722170605357963   0.111086292154362   0.875000000000000   1.0000000
N2   N   0.223219989948368   0.110345438255335   0.375000000000000   1.0000000
N2   N   0.388574264936823   0.615659589566140   0.375000000000000   1.0000000
N2   N   0.720695452105916   0.611775639304628   0.375000000000000   1.0000000
N2   N   0.556510835483522   0.108452585007133   0.375000000000000   1.0000000
N2   N   0.388836300976794   0.611080195355417   0.875000000000000   1.0000000
N2   N   0.891486454581576   0.112409893957460   0.375000000000000   1.0000000
N2   N   0.222167273764956   0.777750303549140   0.875000000000000   1.0000000
N2   N   0.055498033724798   0.277751079891177   0.875000000000000   1.0000000
N2   N   0.388833355383719   0.277760048034137   0.875000000000000   1.0000000
N2   N   0.555502269240867   0.777751169537866   0.875000000000000   1.0000000
N2   N   0.888832333818824   0.777747576188650   0.875000000000000   1.0000000
N2   N   0.722166906819284   0.277752016232932   0.875000000000000   1.0000000
N2   N   0.054214577771426   0.776814906332425   0.375000000000000   1.0000000
N2   N   0.388577631512363   0.779075225980659   0.375000000000000   1.0000000
N2   N   0.226399545221697   0.279866439277517   0.375000000000000   1.0000000
N2   N   0.723863194144027   0.780468283955071   0.375000000000000   1.0000000
N2   N   0.556472991689633   0.271527363873706   0.375000000000000   1.0000000
N2   N   0.890973306463606   0.278212788430081   0.375000000000000   1.0000000
N2   N   0.055497562723535   0.444418102049837   0.875000000000000   1.0000000
N2   N   0.222166541787993   0.944418256459966   0.875000000000000   1.0000000
N2   N   0.555504148687991   0.944418741010659   0.875000000000000   1.0000000
N2   N   0.388833355383719   0.444406640682913   0.875000000000000   1.0000000
N2   N   0.888836436117751   0.944414467075207   0.875000000000000   1.0000000
N2   N   0.056094161366162   0.944468113857218   0.375000000000000   1.0000000
N2   N   0.722156946091993   0.444412629662304   0.875000000000000   1.0000000
N2   N   0.388577631512363   0.942835738865036   0.375000000000000   1.0000000
N2   N   0.223219989948368   0.446207885026373   0.375000000000000   1.0000000
N2   N   0.221420121600010   0.611921220537319   0.375000000000000   1.0000000
N2   N   0.724257942243602   0.946189369507165   0.375000000000000   1.0000000
N2   N   0.888845670507202   0.444005900460255   0.375000000000000   1.0000000
N2   N   0.055495685908971   0.611081625197632   0.875000000000000   1.0000000
N2   N   0.222164537185186   0.111084872504367   0.875000000000000   1.0000000
N2   N   0.722156946091993   0.611077649763027   0.875000000000000   1.0000000
N2   N   0.555502269240867   0.111084433036340   0.875000000000000   1.0000000
N2   N   0.888837372387067   0.111085352860202   0.875000000000000   1.0000000
B2   B   0.112660105055304   0.055880513287495   0.375000000000000   1.0000000
B2   B   0.611043497050240   0.563886685405399   0.375000000000000   1.0000000
B2   B   0.445040690525064   0.052849244444506   0.375000000000000   1.0000000
B2   B   0.943158511375616   0.555012155719372   0.375000000000000   1.0000000
B2   B   0.780452875599113   0.056893104466222   0.375000000000000   1.0000000
B2   B   0.111061128803458   0.722197231068394   0.875000000000000   1.0000000
B2   B   0.444386073287104   0.722197024557006   0.875000000000000   1.0000000
B2   B   0.277691614352426   0.222181494513071   0.875000000000000   1.0000000
B2   B   0.777731458270761   0.722210811519518   0.875000000000000   1.0000000
B2   B   0.611055824822435   0.222181151577545   0.875000000000000   1.0000000
B2   B   0.944397374783252   0.222196174446886   0.875000000000000   1.0000000
B2   B   0.277294800897257   0.722675503510441   0.375000000000000   1.0000000
B2   B   0.115212158310508   0.224272745821916   0.375000000000000   1.0000000
B2   B   0.443695662090459   0.215891138584058   0.375000000000000   1.0000000
B2   B   0.613092627966581   0.728025204149312   0.375000000000000   1.0000000
B2   B   0.943158511375616   0.721479688989594   0.375000000000000   1.0000000
B2   B   0.780145538391246   0.222180544499483   0.375000000000000   1.0000000
B2   B   0.111058330066926   0.888867307926774   0.875000000000000   1.0000000
B2   B   0.444391739785297   0.888862536559312   0.875000000000000   1.0000000
B2   B   0.277691614352426   0.388843453172688   0.875000000000000   1.0000000
B2   B   0.611051223645192   0.388839772137284   0.875000000000000   1.0000000
B2   B   0.777734326667888   0.888875690576370   0.875000000000000   1.0000000
B2   B   0.944398851515268   0.388859560582452   0.875000000000000   1.0000000
B2   B   0.112660105055304   0.390112925101139   0.375000000000000   1.0000000
B2   B   0.277294800897257   0.887952630720134   0.375000000000000   1.0000000
B2   B   0.613024029829463   0.891324721200031   0.375000000000000   1.0000000
B2   B   0.945328777662575   0.889546009603170   0.375000000000000   1.0000000
B2   B   0.778080460947846   0.387711927839659   0.375000000000000   1.0000000
B2   B   0.277712295476870   0.555518233615707   0.875000000000000   1.0000000
B2   B   0.111051793960258   0.055530057770930   0.875000000000000   1.0000000
B2   B   0.611051223645192   0.555544784841235   0.875000000000000   1.0000000
B2   B   0.444386073287104   0.055522382063442   0.875000000000000   1.0000000
B2   B   0.944398287568574   0.555528573553025   0.875000000000000   1.0000000
B2   B   0.110525463583363   0.555851685175683   0.375000000000000   1.0000000
B2   B   0.777734445675681   0.055533889504515   0.875000000000000   1.0000000
B2   B   0.277581483122718   0.053677132893941   0.375000000000000   1.0000000
B2   B   0.443695662090459   0.561137856839746   0.375000000000000   1.0000000
B2   B   0.775115926234442   0.554224629783885   0.375000000000000   1.0000000
B2   B   0.613024029829463   0.055032641962762   0.375000000000000   1.0000000
B2   B   0.444370768762684   0.555526023057675   0.875000000000000   1.0000000
B2   B   0.947365755458048   0.057317008354530   0.375000000000000   1.0000000
B2   B   0.277722828625282   0.722192922975824   0.875000000000000   1.0000000
B2   B   0.111045901538305   0.222189617435815   0.875000000000000   1.0000000
B2   B   0.444370768762684   0.222178079038350   0.875000000000000   1.0000000
B2   B   0.611055824822435   0.722208006578205   0.875000000000000   1.0000000
B2   B   0.944398287568574   0.722203047348893   0.875000000000000   1.0000000
B2   B   0.777734326667888   0.222191969424851   0.875000000000000   1.0000000
B2   B   0.110030504930686   0.721681919132002   0.375000000000000   1.0000000
B2   B   0.445040690525064   0.725524779413890   0.375000000000000   1.0000000
B2   B   0.281338637176234   0.222391129925959   0.375000000000000   1.0000000
B2   B   0.778080460947846   0.723701866441514   0.375000000000000   1.0000000
B2   B   0.613092627966581   0.218400757150604   0.375000000000000   1.0000000
B2   B   0.947365755458048   0.223382080436851   0.375000000000000   1.0000000
B2   B   0.111051793960258   0.388855069522657   0.875000000000000   1.0000000
B2   B   0.277722828625282   0.888863238982817   0.875000000000000   1.0000000
B2   B   0.611061477725621   0.888868483678063   0.875000000000000   1.0000000
B2   B   0.444344921878416   0.388839127605873   0.875000000000000   1.0000000
B2   B   0.944398851515268   0.888872624266130   0.875000000000000   1.0000000
B2   B   0.110525463583363   0.888007111741010   0.375000000000000   1.0000000
B2   B   0.777731458270761   0.388853980084584   0.875000000000000   1.0000000
B2   B   0.445076669339278   0.889205001336304   0.375000000000000   1.0000000
B2   B   0.281338637176234   0.392280840583604   0.375000000000000   1.0000000
B2   B   0.277581483122718   0.557237683562108   0.375000000000000   1.0000000
B2   B   0.611043497050238   0.380490144978170   0.375000000000000   1.0000000
B2   B   0.780145538391246   0.891298327225099   0.375000000000000   1.0000000
B2   B   0.945328777662575   0.389116101392733   0.375000000000000   1.0000000
B2   B   0.111058330066926   0.555524355473472   0.875000000000000   1.0000000
B2   B   0.277712295476870   0.055527395194502   0.875000000000000   1.0000000
B2   B   0.777726879799562   0.555530106566453   0.875000000000000   1.0000000
B2   B   0.611061477725621   0.055526327380891   0.875000000000000   1.0000000
B2   B   0.944397374783252   0.055534533669706   0.875000000000000   1.0000000
B2   B   0.055777887748941   0.111232195251995   0.125009552056139   1.0000000
B2   B   0.555683710832133   0.611294047230697   0.125142480159508   1.0000000
B2   B   0.389016711964114   0.111108777667477   0.125135546454251   1.0000000
B2   B   0.889103759338173   0.611218546335760   0.124940635910523   1.0000000
B2   B   0.722398524425361   0.111176566189850   0.124963013991586   1.0000000
B2   B   0.055741530522206   0.777880427190769   0.624968523419815   1.0000000
B2   B   0.389032339003107   0.777868933112952   0.625073303364988   1.0000000
B2   B   0.222420965986436   0.277877149659885   0.624081817969540   1.0000000
B2   B   0.722399150093463   0.777918165481868   0.625212065645170   1.0000000
B2   B   0.555683710832133   0.277722996934776   0.624857519840492   1.0000000
B2   B   0.889093028762152   0.277853269183077   0.625045936045426   1.0000000
B2   B   0.222379703473026   0.777856518403178   0.125014304861906   1.0000000
B2   B   0.055777887748942   0.277879025830279   0.125009552056139   1.0000000
B2   B   0.388941486086239   0.277619957172276   0.127473623431528   1.0000000
B2   B   0.555701674304996   0.777906835786845   0.124838594803102   1.0000000
B2   B   0.889097306424770   0.777914825325979   0.124917092415663   1.0000000
B2   B   0.722399150093463   0.277814317944929   0.124787934354827   1.0000000
B2   B   0.055757299358158   0.944567993231528   0.625052156069726   1.0000000
B2   B   0.389032339003107   0.944496739223483   0.625073303364988   1.0000000
B2   B   0.222409093309134   0.444544809004677   0.624692972945414   1.0000000
B2   B   0.555950283302661   0.444641808317995   0.623933444734910   1.0000000
B2   B   0.722398524425361   0.944555291568841   0.625036986008418   1.0000000
B2   B   0.889097306424770   0.444515814432122   0.625082907584347   1.0000000
B2   B   0.055757299358158   0.444522639459953   0.124947843930273   1.0000000
B2   B   0.222385071117452   0.944524852949967   0.124977338323751   1.0000000
B2   B   0.555709472637289   0.944521402985309   0.124951890839629   1.0000000
B2   B   0.388941486086239   0.444654862247300   0.127473623431528   1.0000000
B2   B   0.889093028762152   0.944573092912413   0.124954063954576   1.0000000
B2   B   0.722475330753592   0.444532177047057   0.124761521414173   1.0000000
B2   B   0.222385071117452   0.611193551500828   0.625022661676250   1.0000000
B2   B   0.055777887748941   0.111232195251995   0.624990447943858   1.0000000
B2   B   0.555683710832133   0.611294047230697   0.624857519840492   1.0000000
B2   B   0.389016711964114   0.111108777667477   0.624864453545753   1.0000000
B2   B   0.889103759338173   0.611218546335760   0.625059364089473   1.0000000
B2   B   0.055741530522206   0.611194436664771   0.125031476580200   1.0000000
B2   B   0.722398524425361   0.111176566189850   0.625036986008418   1.0000000
B2   B   0.222409093309134   0.111197617637796   0.125307027054592   1.0000000
B2   B   0.389016711964114   0.611241267629983   0.125135546454251   1.0000000
B2   B   0.722475330753592   0.611276487039881   0.124761521414173   1.0000000
B2   B   0.555701674304996   0.111128171851479   0.124838594803102   1.0000000
B2   B   0.389016711964114   0.611241267629983   0.624864453545753   1.0000000
B2   B   0.889097664038784   0.111215498686062   0.124992502943827   1.0000000
B2   B   0.222379703473026   0.777856518403178   0.624985695138095   1.0000000
B2   B   0.055777887748941   0.277879025830279   0.624990447943858   1.0000000
B2   B   0.388941486086239   0.277619957172276   0.622526376568480   1.0000000
B2   B   0.555701674304996   0.777906835786845   0.625161405196903   1.0000000
B2   B   0.889097306424770   0.777914825325979   0.625082907584347   1.0000000
B2   B   0.722399150093463   0.277814317944929   0.625212065645170   1.0000000
B2   B   0.055741530522206   0.777880427190769   0.125031476580200   1.0000000
B2   B   0.389032339003107   0.777868933112952   0.124926696635013   1.0000000
B2   B   0.222420965986436   0.277877149659885   0.125918182030458   1.0000000
B2   B   0.722399150093463   0.777918165481868   0.124787934354827   1.0000000
B2   B   0.555683710832133   0.277722996934776   0.125142480159508   1.0000000
B2   B   0.889093028762152   0.277853269183077   0.124954063954576   1.0000000
B2   B   0.055757299358158   0.444522639459953   0.625052156069726   1.0000000
B2   B   0.222385071117452   0.944524852949967   0.625022661676250   1.0000000
B2   B   0.555709472637289   0.944521402985309   0.625048109160370   1.0000000
B2   B   0.388941486086239   0.444654862247300   0.622526376568480   1.0000000
B2   B   0.889093028762152   0.944573092912413   0.625045936045426   1.0000000
B2   B   0.055757299358158   0.944567993231528   0.124947843930273   1.0000000
B2   B   0.722475330753592   0.444532177047057   0.625238478585824   1.0000000
B2   B   0.389032339003107   0.944496739223483   0.124926696635013   1.0000000
B2   B   0.222409093309134   0.444544809004677   0.125307027054592   1.0000000
B2   B   0.222385071117452   0.611193551500828   0.124977338323751   1.0000000
B2   B   0.555950283302661   0.444641808317995   0.126066555265095   1.0000000
B2   B   0.722398524425361   0.944555291568841   0.124963013991586   1.0000000
B2   B   0.889097306424770   0.444515814432122   0.124917092415663   1.0000000
B2   B   0.055741530522206   0.611194436664771   0.624968523419815   1.0000000
B2   B   0.222409093309134   0.111197617637796   0.624692972945414   1.0000000
B2   B   0.722475330753592   0.611276487039881   0.625238478585824   1.0000000
B2   B   0.555701674304996   0.111128171851479   0.625161405196903   1.0000000
B2   B   0.889097664038784   0.111215498686062   0.625007497056174   1.0000000


