data_1
_audit_creation_method   'vasp2cif'
_cell_length_a    17.52789999999977
_cell_length_b    17.52789999999977
_cell_length_c    15.0
_cell_angle_alpha    90.0
_cell_angle_beta    90.0
_cell_angle_gamma    119.99999999999916

_symmetry_space_group_name_H-M    'P 1'
loop_
_atom_site_label
_atom_site_type_symbol
_atom_site_fract_x
_atom_site_fract_y
_atom_site_fract_z
_atom_site_occupancy
B2   B   0.905666658770535   0.952742502236822   0.105620721366324   1.0000000
B2   B   0.904944091071158   0.095139697126732   0.109333533290348   1.0000000
B2   B   0.904352086323756   0.237710666695018   0.110786669046058   1.0000000
B2   B   0.904288185066653   0.380651659490874   0.109632240271166   1.0000000
B2   B   0.904735361518264   0.523745678483604   0.106978728664636   1.0000000
B2   B   0.905215475753882   0.666839607673938   0.105016339487505   1.0000000
B2   B   0.905744636027263   0.809828443688482   0.103604242593078   1.0000000
B2   B   0.048078829152772   0.952282286374797   0.110067589235603   1.0000000
B2   B   0.047706153679380   0.094851374369029   0.109493714156934   1.0000000
B2   B   0.046834622264524   0.237218713793488   0.108694375573966   1.0000000
B2   B   0.046459664606849   0.380295751625811   0.109110440509465   1.0000000
B2   B   0.046587522323977   0.523546721967616   0.110770782426927   1.0000000
B2   B   0.047400022981819   0.666602621248115   0.111482414089268   1.0000000
B2   B   0.047990624523933   0.809490848213215   0.111215833361028   1.0000000
B2   B   0.190680246065143   0.952073715143980   0.115048856711122   1.0000000
B2   B   0.190595225413865   0.094778874252738   0.112235221384268   1.0000000
B2   B   0.189741551509073   0.236949895957028   0.109055358819375   1.0000000
B2   B   0.188224564793974   0.379169858538892   0.108169443404463   1.0000000
B2   B   0.188041285428523   0.523163203390677   0.112636766311382   1.0000000
B2   B   0.189561127849236   0.666472425342660   0.116214617907054   1.0000000
B2   B   0.190493117961367   0.809309439400104   0.116627989970271   1.0000000
B2   B   0.333464136980480   0.951923130167054   0.117234153195893   1.0000000
B2   B   0.333420644734302   0.094697546291283   0.114449595182158   1.0000000
B2   B   0.333215941702162   0.237357593339480   0.113727684660569   1.0000000
B2   B   0.331277352103688   0.378435560443487   0.114879012020285   1.0000000
B2   B   0.327329307858820   0.521140139062741   0.120397181768154   1.0000000
B2   B   0.332117123707311   0.666866497527576   0.123725420885687   1.0000000
B2   B   0.333280439967918   0.809091563426525   0.118037642303028   1.0000000
B2   B   0.476397180480343   0.952077519324899   0.116430264774636   1.0000000
B2   B   0.476282480628954   0.094686348391386   0.114660228602440   1.0000000
B2   B   0.476213218135482   0.237153872788429   0.110309373457870   1.0000000
B2   B   0.476348857925620   0.379044990353708   0.115782416800171   1.0000000
B2   B   0.475943431036368   0.808839238171643   0.114548168118135   1.0000000
B2   B   0.619504419675731   0.952442649836385   0.110908626040556   1.0000000
B2   B   0.619141007449066   0.094968015031258   0.114239911838752   1.0000000
B2   B   0.619107198512138   0.237672693581106   0.110430930384818   1.0000000
B2   B   0.619520938868811   0.380536894570495   0.104869316388350   1.0000000
B2   B   0.622235222470290   0.524616512049360   0.107168982238725   1.0000000
B2   B   0.620814675673826   0.669657765805965   0.095337045247994   1.0000000
B2   B   0.621687925520376   0.810695777279103   0.101233088862380   1.0000000
B2   B   0.763057089946218   0.953169906658137   0.104902985997765   1.0000000
B2   B   0.761983872835237   0.095153208982899   0.111550677070056   1.0000000
B2   B   0.761753283827666   0.237829945142916   0.111738570800716   1.0000000
B2   B   0.761989115284676   0.380725889822013   0.106747385137550   1.0000000
B2   B   0.762959919672478   0.523971122411032   0.101309716171525   1.0000000
B2   B   0.762942336580614   0.667312348506976   0.100318219860809   1.0000000
B2   B   0.764078070453441   0.810918196786217   0.096638474802531   1.0000000
N2   N   0.953187967161343   0.904978530521955   0.106282768759729   1.0000000
N2   N   0.952870948616775   0.047773778022031   0.108630604823581   1.0000000
N2   N   0.952065996497792   0.190163554310609   0.110044811273082   1.0000000
N2   N   0.951613600156813   0.332841483258326   0.110043036233411   1.0000000
N2   N   0.951714408647829   0.475827373612096   0.109179089336059   1.0000000
N2   N   0.952342952499519   0.618931248698281   0.107600361672869   1.0000000
N2   N   0.952996248628888   0.761976285366083   0.106673155699371   1.0000000
N2   N   0.095607959960345   0.904670666887855   0.112634368118623   1.0000000
N2   N   0.095575634450419   0.047487742561817   0.110792299837486   1.0000000
N2   N   0.094901026693794   0.189930019558741   0.108810191705156   1.0000000
N2   N   0.093681095728543   0.332143729109985   0.107827128523252   1.0000000
N2   N   0.093434562974685   0.475450710012789   0.110140631332408   1.0000000
N2   N   0.094470308098573   0.618709334691031   0.112804655802853   1.0000000
N2   N   0.095306781511089   0.761761470398057   0.113730261649669   1.0000000
N2   N   0.238211879870637   0.904523333302814   0.117170688746912   1.0000000
N2   N   0.238286087062461   0.047342110522892   0.114472270227458   1.0000000
N2   N   0.238120745859949   0.190086039000484   0.111464517490393   1.0000000
N2   N   0.236775680999771   0.332023682237898   0.108157822398261   1.0000000
N2   N   0.233656283703468   0.473817781279507   0.110321643922647   1.0000000
N2   N   0.236212229824050   0.618256412626838   0.117593074348481   1.0000000
N2   N   0.237834782862228   0.761623184417096   0.118020227519975   1.0000000
N2   N   0.380990794898696   0.904406060982983   0.117707262144452   1.0000000
N2   N   0.381059680363475   0.047255844673370   0.115861949616117   1.0000000
N2   N   0.381025918662259   0.190062290839272   0.112838387963683   1.0000000
N2   N   0.380960093402575   0.332929260406289   0.117478073126311   1.0000000
N2   N   0.373577766213162   0.472843509079163   0.120529900548612   1.0000000
N2   N   0.368445141110516   0.611755638732050   0.139493887369049   1.0000000
N2   N   0.380591268866277   0.761363429157830   0.118589994257446   1.0000000
N2   N   0.524244167332101   0.905139504424367   0.114403504183090   1.0000000
N2   N   0.523948417284220   0.047409754443103   0.115867825900589   1.0000000
N2   N   0.523877482530128   0.189951126133443   0.111465031324078   1.0000000
N2   N   0.524044847043444   0.332416718489633   0.107616779833928   1.0000000
N2   N   0.528257547414803   0.473524352384541   0.122621371360611   1.0000000
N2   N   0.526983755362482   0.627266507753377   0.093495264587761   1.0000000
N2   N   0.530111840292917   0.771064320556315   0.110212783394085   1.0000000
N2   N   0.668470205791683   0.906450016375283   0.104791181017993   1.0000000
N2   N   0.666957072663941   0.047791511849949   0.112949524584284   1.0000000
N2   N   0.666651394144378   0.190275313180395   0.112791893986830   1.0000000
N2   N   0.666757983392497   0.332941079674041   0.106771926794832   1.0000000
N2   N   0.667829111184298   0.475886204001901   0.100734320511153   1.0000000
N2   N   0.667655564476584   0.619755051497689   0.102693782548896   1.0000000
N2   N   0.669984276229416   0.764210685823600   0.092105735766715   1.0000000
N2   N   0.811063316821986   0.905813889348581   0.101836357222284   1.0000000
N2   N   0.810141403138903   0.048120117203277   0.109129700289626   1.0000000
N2   N   0.809391968447040   0.190362779782605   0.112187821308696   1.0000000
N2   N   0.809250114550406   0.333039076491969   0.109673661637212   1.0000000
N2   N   0.809737841328833   0.475950852062281   0.104266430612738   1.0000000
N2   N   0.810097914054676   0.619149986810968   0.101508236002522   1.0000000
N2   N   0.810952274261068   0.762444999795218   0.098465031565585   1.0000000
Se2   Se   0.482560065722455   0.539668406996898   0.165083666249689   1.0000000


