data_1
_audit_creation_method   'vasp2cif'
_cell_length_a    14.93631414619966
_cell_length_b    14.936314146199727
_cell_length_c    13.341276283792837
_cell_angle_alpha    90.0
_cell_angle_beta    90.0
_cell_angle_gamma    119.99999999999984

_symmetry_space_group_name_H-M    'P 1'
loop_
_atom_site_label
_atom_site_type_symbol
_atom_site_fract_x
_atom_site_fract_y
_atom_site_fract_z
_atom_site_occupancy
S2   S   0.464820539937349   0.399076936635339   0.375000000000000   1.0000000
N2   N   0.111037811193134   0.055517520967338   0.125094419651858   1.0000000
N2   N   0.611026756722170   0.555487429388145   0.124618647785402   1.0000000
N2   N   0.444409425220546   0.055551460342428   0.125095025961661   1.0000000
N2   N   0.944408367003233   0.555539918975585   0.125057018484767   1.0000000
N2   N   0.777717424029147   0.055525378681242   0.125022702569258   1.0000000
N2   N   0.111085013814594   0.722209173573962   0.624968900335258   1.0000000
N2   N   0.444409425220546   0.722191298211453   0.624904974038339   1.0000000
N2   N   0.277662806337580   0.222177180247211   0.625338991959286   1.0000000
N2   N   0.777715682794039   0.722169746571767   0.624876069307909   1.0000000
N2   N   0.611050415751240   0.222221090420891   0.624859645298891   1.0000000
N2   N   0.944366366780625   0.222189221235659   0.624991426706428   1.0000000
N2   N   0.277754592789512   0.722206459298663   0.125025624813423   1.0000000
N2   N   0.110995778191321   0.222164555762325   0.125028313254993   1.0000000
N2   N   0.444386813464032   0.222216854367896   0.124720859846246   1.0000000
N2   N   0.611050415751240   0.722162658663678   0.125140354701108   1.0000000
N2   N   0.944408367003233   0.722201781360986   0.125057018484767   1.0000000
N2   N   0.777719975489021   0.222208547459389   0.125044348687058   1.0000000
N2   N   0.111076280539965   0.888873226399494   0.624970201057500   1.0000000
N2   N   0.444419651378055   0.888876492355691   0.624980863076043   1.0000000
N2   N   0.277662806337580   0.388818959423698   0.625338991959286   1.0000000
N2   N   0.611026756722170   0.388872660667354   0.625381352214597   1.0000000
N2   N   0.777719975489021   0.888844761362959   0.624955651312942   1.0000000
N2   N   0.944390572030895   0.388871228381385   0.624972927391367   1.0000000
N2   N   0.111037811193134   0.388853623559126   0.125094419651858   1.0000000
N2   N   0.277754592789512   0.888881466824177   0.125025624813423   1.0000000
N2   N   0.611067254425948   0.888857990599544   0.125037256429694   1.0000000
N2   N   0.444225851373080   0.388779592353204   0.121746507192928   1.0000000
N2   N   0.944390572030895   0.888852676982840   0.125027072608632   1.0000000
N2   N   0.777715682794039   0.388879269555600   0.125123930692090   1.0000000
N2   N   0.277733962070396   0.555520960216972   0.624944011489112   1.0000000
N2   N   0.111037811193134   0.055517520967338   0.624905580348142   1.0000000
N2   N   0.611026756722170   0.555487429388145   0.625381352214597   1.0000000
N2   N   0.444409425220546   0.055551460342428   0.624904974038339   1.0000000
N2   N   0.944408367003233   0.555539918975585   0.624942981515232   1.0000000
N2   N   0.111076280539965   0.555536387473799   0.125029798942500   1.0000000
N2   N   0.777717424029147   0.055525378681242   0.624977297430741   1.0000000
N2   N   0.277733962070396   0.055546335186759   0.125055988510887   1.0000000
N2   N   0.444386813464032   0.555503292429472   0.124720859846246   1.0000000
N2   N   0.777729913703160   0.555531623518248   0.125130943932043   1.0000000
N2   N   0.611067254425948   0.055542597159732   0.125037256429694   1.0000000
N2   N   0.444386813464032   0.555503292429472   0.625279140153754   1.0000000
N2   N   0.944366366780625   0.055510478878303   0.125008573293572   1.0000000
N2   N   0.277754592789512   0.722206459298663   0.624974375186577   1.0000000
N2   N   0.110995778191321   0.222164555762325   0.624971686745007   1.0000000
N2   N   0.444386813464032   0.222216854367896   0.625279140153754   1.0000000
N2   N   0.611050415751240   0.722162658663678   0.624859645298891   1.0000000
N2   N   0.944408367003233   0.722201781360986   0.624942981515232   1.0000000
N2   N   0.777719975489021   0.222208547459389   0.624955651312942   1.0000000
N2   N   0.111085013814594   0.722209173573962   0.125031099664741   1.0000000
N2   N   0.444409425220546   0.722191298211453   0.125095025961661   1.0000000
N2   N   0.277662806337580   0.222177180247211   0.124661008040715   1.0000000
N2   N   0.777715682794039   0.722169746571767   0.125123930692090   1.0000000
N2   N   0.611050415751240   0.222221090420891   0.125140354701108   1.0000000
N2   N   0.944366366780625   0.222189221235659   0.125008573293572   1.0000000
N2   N   0.111037811193134   0.388853623559126   0.624905580348142   1.0000000
N2   N   0.277754592789512   0.888881466824177   0.624974375186577   1.0000000
N2   N   0.611067254425948   0.888857990599544   0.624962743570306   1.0000000
N2   N   0.444225851373080   0.388779592353204   0.628253492807072   1.0000000
N2   N   0.944390572030895   0.888852676982840   0.624972927391367   1.0000000
N2   N   0.111076280539965   0.888873226399494   0.125029798942500   1.0000000
N2   N   0.777715682794039   0.388879269555600   0.624876069307909   1.0000000
N2   N   0.444419651378055   0.888876492355691   0.125019136923957   1.0000000
N2   N   0.277662806337580   0.388818959423698   0.124661008040715   1.0000000
N2   N   0.277733962070396   0.555520960216972   0.125055988510887   1.0000000
N2   N   0.611026756722170   0.388872660667354   0.124618647785402   1.0000000
N2   N   0.777719975489021   0.888844761362959   0.125044348687058   1.0000000
N2   N   0.944390572030895   0.388871228381385   0.125027072608632   1.0000000
N2   N   0.111076280539965   0.555536387473799   0.624970201057500   1.0000000
N2   N   0.277733962070396   0.055546335186759   0.624944011489112   1.0000000
N2   N   0.777729913703160   0.555531623518248   0.624869056067956   1.0000000
N2   N   0.611067254425948   0.055542597159732   0.624962743570306   1.0000000
N2   N   0.944366366780625   0.055510478878303   0.624991426706428   1.0000000
N2   N   0.054113919691378   0.110222802894256   0.375000000000000   1.0000000
N2   N   0.555750773547413   0.607715007283644   0.375000000000000   1.0000000
N2   N   0.388413875893602   0.109915172222733   0.375000000000000   1.0000000
N2   N   0.891140601795670   0.612236967564506   0.375000000000000   1.0000000
N2   N   0.721653016204083   0.111037630158492   0.375000000000000   1.0000000
N2   N   0.055557725623924   0.777778803833325   0.875000000000000   1.0000000
N2   N   0.388891411639434   0.777780584907752   0.875000000000000   1.0000000
N2   N   0.222223163258084   0.277778248295710   0.875000000000000   1.0000000
N2   N   0.722225245521874   0.777778267510613   0.875000000000000   1.0000000
N2   N   0.555558465655749   0.277778957872061   0.875000000000000   1.0000000
N2   N   0.888893758315794   0.277781980335327   0.875000000000000   1.0000000
N2   N   0.222620861401885   0.777977097367610   0.375000000000000   1.0000000
N2   N   0.054113919691378   0.277224450130458   0.375000000000000   1.0000000
N2   N   0.383067084538777   0.270060558829513   0.375000000000000   1.0000000
N2   N   0.555528540464733   0.776626545323375   0.375000000000000   1.0000000
N2   N   0.890007127060697   0.778499843410046   0.375000000000000   1.0000000
N2   N   0.722104593977723   0.278280871675862   0.375000000000000   1.0000000
N2   N   0.055556858306155   0.944443355227553   0.875000000000000   1.0000000
N2   N   0.388891411639434   0.944444160065019   0.875000000000000   1.0000000
N2   N   0.222221028921349   0.444447834757707   0.875000000000000   1.0000000
N2   N   0.555567803218147   0.444450568275738   0.875000000000000   1.0000000
N2   N   0.722223332331542   0.944444513988463   0.875000000000000   1.0000000
N2   N   0.888894977412172   0.444448016082390   0.875000000000000   1.0000000
N2   N   0.055107821041537   0.444452522109104   0.375000000000000   1.0000000
N2   N   0.222160595605387   0.944161145650420   0.375000000000000   1.0000000
N2   N   0.555490282786486   0.944411808059907   0.375000000000000   1.0000000
N2   N   0.383067084538777   0.446339859042600   0.375000000000000   1.0000000
N2   N   0.888170571077827   0.943937308453596   0.375000000000000   1.0000000
N2   N   0.725811998242384   0.446185411652688   0.375000000000000   1.0000000
N2   N   0.222221855192531   0.611113379300844   0.875000000000000   1.0000000
N2   N   0.055557694619058   0.111110383098113   0.875000000000000   1.0000000
N2   N   0.555558465655749   0.611112841117023   0.875000000000000   1.0000000
N2   N   0.388889208536158   0.111107279278613   0.875000000000000   1.0000000
N2   N   0.888895450465525   0.611114391899435   0.875000000000000   1.0000000
N2   N   0.056378567322145   0.611509781719664   0.375000000000000   1.0000000
N2   N   0.722223332331542   0.111112151676415   0.875000000000000   1.0000000
N2   N   0.220193739079183   0.109183286921087   0.375000000000000   1.0000000
N2   N   0.388413875893602   0.611832037004213   0.375000000000000   1.0000000
N2   N   0.725811998242384   0.612959919923032   0.375000000000000   1.0000000
N2   N   0.555528540464733   0.112235328474692   0.375000000000000   1.0000000
N2   N   0.388889208536158   0.611115262590888   0.875000000000000   1.0000000
N2   N   0.887827865826105   0.110580599579724   0.375000000000000   1.0000000
N2   N   0.222223285883679   0.777778309608506   0.875000000000000   1.0000000
N2   N   0.055557694619058   0.277780644854280   0.875000000000000   1.0000000
N2   N   0.388887237673033   0.277766879392051   0.875000000000000   1.0000000
N2   N   0.555555996757665   0.777778396162202   0.875000000000000   1.0000000
N2   N   0.888894977412172   0.777780294663118   0.875000000000000   1.0000000
N2   N   0.722225245521874   0.277780311344597   0.875000000000000   1.0000000
N2   N   0.056378567322145   0.778202118935819   0.375000000000000   1.0000000
N2   N   0.389042421832641   0.778001795543926   0.375000000000000   1.0000000
N2   N   0.219774413127700   0.276553873230517   0.375000000000000   1.0000000
N2   N   0.722104593977723   0.777157055635196   0.375000000000000   1.0000000
N2   N   0.555750773547413   0.281369099597105   0.375000000000000   1.0000000
N2   N   0.888170571077827   0.277566595957567   0.375000000000000   1.0000000
N2   N   0.055556858306155   0.444446836411933   0.875000000000000   1.0000000
N2   N   0.222221855192531   0.944441809225022   0.875000000000000   1.0000000
N2   N   0.555555878597246   0.944444605965286   0.875000000000000   1.0000000
N2   N   0.388887237673033   0.444453691614317   0.875000000000000   1.0000000
N2   N   0.888893758315794   0.944445111313803   0.875000000000000   1.0000000
N2   N   0.055107821041537   0.943988632265761   0.375000000000000   1.0000000
N2   N   0.722229411404082   0.444448542716578   0.875000000000000   1.0000000
N2   N   0.389042421832641   0.944373959622051   0.375000000000000   1.0000000
N2   N   0.220193739079183   0.444343785491431   0.375000000000000   1.0000000
N2   N   0.222160595605387   0.611332783288304   0.375000000000000   1.0000000
N2   N   0.721653016204083   0.943948719378926   0.375000000000000   1.0000000
N2   N   0.890007127060697   0.444840616983989   0.375000000000000   1.0000000
N2   N   0.055557725623924   0.611112255123937   0.875000000000000   1.0000000
N2   N   0.222221028921349   0.111106527496978   0.875000000000000   1.0000000
N2   N   0.722229411404082   0.611114202020839   0.875000000000000   1.0000000
N2   N   0.555555996757665   0.111110933928798   0.875000000000000   1.0000000
N2   N   0.888892918340609   0.111113125836976   0.875000000000000   1.0000000
B2   B   0.109599958138541   0.054536442318787   0.375000000000000   1.0000000
B2   B   0.616765224389823   0.555699621472435   0.375000000000000   1.0000000
B2   B   0.444395764817526   0.055258798693291   0.375000000000000   1.0000000
B2   B   0.945775006179868   0.555967895837229   0.375000000000000   1.0000000
B2   B   0.776918235060631   0.055125784196984   0.375000000000000   1.0000000
B2   B   0.111113030752985   0.722223182043158   0.875000000000000   1.0000000
B2   B   0.444442698617649   0.722211810936660   0.875000000000000   1.0000000
B2   B   0.277800337785660   0.222236856509979   0.875000000000000   1.0000000
B2   B   0.777771282492389   0.722207845008378   0.875000000000000   1.0000000
B2   B   0.611102985279411   0.222235169252556   0.875000000000000   1.0000000
B2   B   0.944454871499848   0.222228782650452   0.875000000000000   1.0000000
B2   B   0.277982550672563   0.722379460277631   0.375000000000000   1.0000000
B2   B   0.109155443565970   0.221244388449649   0.375000000000000   1.0000000
B2   B   0.443468800581556   0.220435227885470   0.375000000000000   1.0000000
B2   B   0.610994642331801   0.720403789464062   0.375000000000000   1.0000000
B2   B   0.945775006179868   0.723140443675974   0.375000000000000   1.0000000
B2   B   0.777169518918211   0.222099941631087   0.375000000000000   1.0000000
B2   B   0.111115650331063   0.888892729933643   0.875000000000000   1.0000000
B2   B   0.444444242678460   0.888888788005894   0.875000000000000   1.0000000
B2   B   0.277800337785660   0.388896814609009   0.875000000000000   1.0000000
B2   B   0.611097469645154   0.388901356803397   0.875000000000000   1.0000000
B2   B   0.777777746595279   0.888881634589004   0.875000000000000   1.0000000
B2   B   0.944448732883052   0.388894181076098   0.875000000000000   1.0000000
B2   B   0.109599958138541   0.388396849153083   0.375000000000000   1.0000000
B2   B   0.277982550672563   0.888936423728261   0.375000000000000   1.0000000
B2   B   0.610733063472187   0.888197640884628   0.375000000000000   1.0000000
B2   B   0.944450510650189   0.889098211488567   0.375000000000000   1.0000000
B2   B   0.779529661243257   0.389208679652330   0.375000000000000   1.0000000
B2   B   0.277785256460161   0.555552798827081   0.875000000000000   1.0000000
B2   B   0.111123757089829   0.055563405636551   0.875000000000000   1.0000000
B2   B   0.611097469645154   0.555529446175084   0.875000000000000   1.0000000
B2   B   0.444442698617649   0.055564221014325   0.875000000000000   1.0000000
B2   B   0.944443401854163   0.555556868876129   0.875000000000000   1.0000000
B2   B   0.111276960177385   0.555602608479877   0.375000000000000   1.0000000
B2   B   0.777780727849745   0.055557030591540   0.875000000000000   1.0000000
B2   B   0.277144816980508   0.054930925321824   0.375000000000000   1.0000000
B2   B   0.443468800581556   0.556366906029421   0.375000000000000   1.0000000
B2   B   0.781144869120791   0.557239101227064   0.375000000000000   1.0000000
B2   B   0.610733063472187   0.055868755920888   0.375000000000000   1.0000000
B2   B   0.444445953041981   0.555540472837737   0.875000000000000   1.0000000
B2   B   0.943268410774358   0.054937523056998   0.375000000000000   1.0000000
B2   B   0.277780593178202   0.722220917374039   0.875000000000000   1.0000000
B2   B   0.111130419339959   0.222231876336643   0.875000000000000   1.0000000
B2   B   0.444445953041981   0.222238813537581   0.875000000000000   1.0000000
B2   B   0.611102985279411   0.722201149360184   0.875000000000000   1.0000000
B2   B   0.944443401854163   0.722219866311371   0.875000000000000   1.0000000
B2   B   0.777777746595279   0.222229445339603   0.875000000000000   1.0000000
B2   B   0.111757448867984   0.722545391100656   0.375000000000000   1.0000000
B2   B   0.444395764817526   0.722470299457570   0.375000000000000   1.0000000
B2   B   0.273881402258457   0.219612667297410   0.375000000000000   1.0000000
B2   B   0.779529661243257   0.723654314924256   0.375000000000000   1.0000000
B2   B   0.610994642331801   0.223924186201069   0.375000000000000   1.0000000
B2   B   0.943268410774358   0.221664221050694   0.375000000000000   1.0000000
B2   B   0.111123757089829   0.388893684786607   0.875000000000000   1.0000000
B2   B   0.277780593178202   0.888893009137492   0.875000000000000   1.0000000
B2   B   0.611107628844201   0.888881788082764   0.875000000000000   1.0000000
B2   B   0.444457976835379   0.388895655084354   0.875000000000000   1.0000000
B2   B   0.944448732883052   0.888887885140283   0.875000000000000   1.0000000
B2   B   0.111276960177385   0.889007685030836   0.375000000000000   1.0000000
B2   B   0.777771282492389   0.388896770817340   0.875000000000000   1.0000000
B2   B   0.444497904950617   0.888915619141974   0.375000000000000   1.0000000
B2   B   0.273881402258457   0.387602068294375   0.375000000000000   1.0000000
B2   B   0.277144816980508   0.555547224992019   0.375000000000000   1.0000000
B2   B   0.616765224389823   0.394398936250718   0.375000000000000   1.0000000
B2   B   0.777169518918211   0.888402910620453   0.375000000000000   1.0000000
B2   B   0.944450510650189   0.388685632494949   0.375000000000000   1.0000000
B2   B   0.111115650331063   0.555556253730749   0.875000000000000   1.0000000
B2   B   0.277785256460161   0.055565790966415   0.875000000000000   1.0000000
B2   B   0.777766225699748   0.555549779516542   0.875000000000000   1.0000000
B2   B   0.611107628844201   0.055559174094766   0.875000000000000   1.0000000
B2   B   0.944454871499848   0.055559422182731   0.875000000000000   1.0000000
B2   B   0.055488313623421   0.111081325835693   0.125022191840235   1.0000000
B2   B   0.555474347166425   0.610978503724823   0.124820318495010   1.0000000
B2   B   0.388867765240378   0.111164378589077   0.124997534480263   1.0000000
B2   B   0.888812596989397   0.611072965161369   0.125017874175630   1.0000000
B2   B   0.722173425712675   0.111096355991996   0.124997033064591   1.0000000
B2   B   0.055525924663270   0.777766965450145   0.625007783478612   1.0000000
B2   B   0.388873258657974   0.777754607282171   0.624990828668688   1.0000000
B2   B   0.222147368127337   0.277740350730336   0.625244597632844   1.0000000
B2   B   0.722149716260015   0.777710896774256   0.624959665536907   1.0000000
B2   B   0.555474347166425   0.277829176774939   0.625179681504990   1.0000000
B2   B   0.888832395394816   0.277757383433308   0.625010915480866   1.0000000
B2   B   0.222209720170710   0.777771526752022   0.124993952251262   1.0000000
B2   B   0.055488313623421   0.277740321121064   0.125022191840235   1.0000000
B2   B   0.388847788393923   0.277869971717797   0.123770751135575   1.0000000
B2   B   0.555513718723822   0.777723736302214   0.125041659966347   1.0000000
B2   B   0.888816964184223   0.777732288154046   0.125016274878377   1.0000000
B2   B   0.722149716260015   0.277772152819096   0.125040334463093   1.0000000
B2   B   0.055511341847810   0.944427549778599   0.624983266179401   1.0000000
B2   B   0.388873258657974   0.944451984709138   0.624990828668688   1.0000000
B2   B   0.222178971308202   0.444387412704642   0.625009411103088   1.0000000
B2   B   0.555276141257483   0.444304737295406   0.625604426292456   1.0000000
B2   B   0.722173425712675   0.944410403054014   0.625002966935409   1.0000000
B2   B   0.888816964184223   0.444418009363511   0.624983725121623   1.0000000
B2   B   0.055511341847810   0.444417125402540   0.125016733820600   1.0000000
B2   B   0.222205084462480   0.944458393927836   0.125006841330356   1.0000000
B2   B   0.555526764430427   0.944430048881875   0.124998569505035   1.0000000
B2   B   0.388847788393923   0.444311150009462   0.123770751135575   1.0000000
B2   B   0.888832395394816   0.944408345294845   0.124989084519135   1.0000000
B2   B   0.722054301855026   0.444397234369059   0.124997895765713   1.0000000
B2   B   0.222205084462480   0.611080023867978   0.624993158669644   1.0000000
B2   B   0.055488313623421   0.111081325835693   0.624977808159765   1.0000000
B2   B   0.555474347166425   0.610978503724823   0.625179681504990   1.0000000
B2   B   0.388867765240378   0.111164378589077   0.625002465519738   1.0000000
B2   B   0.888812596989397   0.611072965161369   0.624982125824370   1.0000000
B2   B   0.055525924663270   0.611092292546461   0.124992216521389   1.0000000
B2   B   0.722173425712675   0.111096355991996   0.625002966935409   1.0000000
B2   B   0.222178971308202   0.111124891936896   0.124990588896912   1.0000000
B2   B   0.388867765240378   0.611036719984643   0.124997534480263   1.0000000
B2   B   0.722054301855026   0.610990400819302   0.124997895765713   1.0000000
B2   B   0.555513718723822   0.111123315754945   0.125041659966347   1.0000000
B2   B   0.388867765240378   0.611036719984643   0.625002465519738   1.0000000
B2   B   0.888831893189237   0.111082613261290   0.124983270448331   1.0000000
B2   B   0.222209720170710   0.777771526752022   0.625006047748739   1.0000000
B2   B   0.055488313623421   0.277740321121064   0.624977808159765   1.0000000
B2   B   0.388847788393923   0.277869971717797   0.626229248864425   1.0000000
B2   B   0.555513718723822   0.777723736302214   0.624958340033653   1.0000000
B2   B   0.888816964184223   0.777732288154046   0.624983725121623   1.0000000
B2   B   0.722149716260015   0.277772152819096   0.624959665536907   1.0000000
B2   B   0.055525924663270   0.777766965450145   0.124992216521389   1.0000000
B2   B   0.388873258657974   0.777754607282171   0.125009171331312   1.0000000
B2   B   0.222147368127337   0.277740350730336   0.124755402367155   1.0000000
B2   B   0.722149716260015   0.777710896774256   0.125040334463093   1.0000000
B2   B   0.555474347166425   0.277829176774939   0.124820318495010   1.0000000
B2   B   0.888832395394816   0.277757383433308   0.124989084519135   1.0000000
B2   B   0.055511341847810   0.444417125402540   0.624983266179401   1.0000000
B2   B   0.222205084462480   0.944458393927836   0.624993158669644   1.0000000
B2   B   0.555526764430427   0.944430048881875   0.625001430494964   1.0000000
B2   B   0.388847788393923   0.444311150009462   0.626229248864425   1.0000000
B2   B   0.888832395394816   0.944408345294845   0.625010915480866   1.0000000
B2   B   0.055511341847810   0.944427549778599   0.125016733820600   1.0000000
B2   B   0.722054301855026   0.444397234369059   0.625002104234287   1.0000000
B2   B   0.388873258657974   0.944451984709138   0.125009171331312   1.0000000
B2   B   0.222178971308202   0.444387412704642   0.124990588896912   1.0000000
B2   B   0.222205084462480   0.611080023867978   0.125006841330356   1.0000000
B2   B   0.555276141257483   0.444304737295406   0.124395573707544   1.0000000
B2   B   0.722173425712675   0.944410403054014   0.124997033064591   1.0000000
B2   B   0.888816964184223   0.444418009363511   0.125016274878377   1.0000000
B2   B   0.055525924663270   0.611092292546461   0.625007783478612   1.0000000
B2   B   0.222178971308202   0.111124891936896   0.625009411103088   1.0000000
B2   B   0.722054301855026   0.610990400819302   0.625002104234287   1.0000000
B2   B   0.555513718723822   0.111123315754945   0.624958340033653   1.0000000
B2   B   0.888831893189237   0.111082613261290   0.625016729551669   1.0000000


