data_1
_audit_creation_method   'vasp2cif'
_cell_length_a    14.93631414619966
_cell_length_b    14.936314146199727
_cell_length_c    13.341276283792837
_cell_angle_alpha    90.0
_cell_angle_beta    90.0
_cell_angle_gamma    119.99999999999984

_symmetry_space_group_name_H-M    'P 1'
loop_
_atom_site_label
_atom_site_type_symbol
_atom_site_fract_x
_atom_site_fract_y
_atom_site_fract_z
_atom_site_occupancy
C2   C   0.439497026204642   0.386415179768985   0.375000000000000   1.0000000
O2   O   0.549036073805019   0.441184703569174   0.375000000000000   1.0000000
N2   N   0.111141162678367   0.055550427777222   0.125267388319871   1.0000000
N2   N   0.611120061891212   0.555539979888986   0.127144665617007   1.0000000
N2   N   0.444430760688205   0.055544588642350   0.125325950062021   1.0000000
N2   N   0.944484093251925   0.555584802477873   0.125189052884828   1.0000000
N2   N   0.777787620313975   0.055560476823655   0.125165549800539   1.0000000
N2   N   0.111132409725785   0.722232871529558   0.624833564339438   1.0000000
N2   N   0.444430760688205   0.722219505379192   0.624674049937980   1.0000000
N2   N   0.277825042637438   0.222236993891374   0.623955792674968   1.0000000
N2   N   0.777806413640630   0.722215962135857   0.624532497457366   1.0000000
N2   N   0.611110408706409   0.222235484540823   0.624467711157028   1.0000000
N2   N   0.944478806539648   0.222251288826953   0.624835643841486   1.0000000
N2   N   0.277777415064819   0.722231788236188   0.125184273092853   1.0000000
N2   N   0.111161852732956   0.222247593033142   0.125356721489808   1.0000000
N2   N   0.444450362410012   0.222233806704201   0.126350797770992   1.0000000
N2   N   0.611110408706409   0.722208257498917   0.125532288842973   1.0000000
N2   N   0.944484093251925   0.722232624107381   0.125189052884828   1.0000000
N2   N   0.777792512271578   0.222247003792314   0.125160464795257   1.0000000
N2   N   0.111130280305754   0.888880615048039   0.624820585862001   1.0000000
N2   N   0.444432188258281   0.888882760795804   0.624849975267265   1.0000000
N2   N   0.277825042637438   0.388921382079392   0.623955792674968   1.0000000
N2   N   0.611120061891212   0.388913415335554   0.622855334382994   1.0000000
N2   N   0.777792512271578   0.888878841812590   0.624839535204743   1.0000000
N2   N   0.944476506403030   0.388925789600057   0.624861427730400   1.0000000
N2   N   0.111141162678367   0.388924068234472   0.125267388319871   1.0000000
N2   N   0.277777415064819   0.888878960161958   0.125184273092853   1.0000000
N2   N   0.611099451694178   0.888877623896136   0.125141390040608   1.0000000
N2   N   0.444481623310676   0.388907478322003   0.127425906860492   1.0000000
N2   N   0.944476506403030   0.888884050136300   0.125138572269599   1.0000000
N2   N   0.777806413640630   0.388923784838103   0.125467502542633   1.0000000
N2   N   0.277785339857577   0.555577546339926   0.624545546596291   1.0000000
N2   N   0.111141162678367   0.055550427777222   0.624732611680130   1.0000000
N2   N   0.611120061891212   0.555539979888986   0.622855334382994   1.0000000
N2   N   0.444430760688205   0.055544588642350   0.624674049937980   1.0000000
N2   N   0.944484093251925   0.555584802477873   0.624810947115171   1.0000000
N2   N   0.111130280305754   0.555582998591047   0.125179414138000   1.0000000
N2   N   0.777787620313975   0.055560476823655   0.624834450199463   1.0000000
N2   N   0.277785339857577   0.055541126850988   0.125454453403710   1.0000000
N2   N   0.444450362410012   0.555549889039148   0.126350797770992   1.0000000
N2   N   0.777815194033967   0.555574263683651   0.125809435462594   1.0000000
N2   N   0.611099451694178   0.055555161131373   0.125141390040608   1.0000000
N2   N   0.444450362410012   0.555549889039148   0.623649202229011   1.0000000
N2   N   0.944478806539648   0.055560851046030   0.125164356158513   1.0000000
N2   N   0.277777415064819   0.722231788236188   0.624815726907149   1.0000000
N2   N   0.111161852732956   0.222247593033142   0.624643278510191   1.0000000
N2   N   0.444450362410012   0.222233806704201   0.623649202229011   1.0000000
N2   N   0.611110408706409   0.722208257498917   0.624467711157028   1.0000000
N2   N   0.944484093251925   0.722232624107381   0.624810947115171   1.0000000
N2   N   0.777792512271578   0.222247003792314   0.624839535204743   1.0000000
N2   N   0.111132409725785   0.722232871529558   0.125166435660560   1.0000000
N2   N   0.444430760688205   0.722219505379192   0.125325950062021   1.0000000
N2   N   0.277825042637438   0.222236993891374   0.126044207325035   1.0000000
N2   N   0.777806413640630   0.722215962135857   0.125467502542633   1.0000000
N2   N   0.611110408706409   0.222235484540823   0.125532288842973   1.0000000
N2   N   0.944478806539648   0.222251288826953   0.125164356158513   1.0000000
N2   N   0.111141162678367   0.388924068234472   0.624732611680130   1.0000000
N2   N   0.277777415064819   0.888878960161958   0.624815726907149   1.0000000
N2   N   0.611099451694178   0.888877623896136   0.624858609959394   1.0000000
N2   N   0.444481623310676   0.388907478322003   0.622574093139510   1.0000000
N2   N   0.944476506403030   0.888884050136300   0.624861427730400   1.0000000
N2   N   0.111130280305754   0.888880615048039   0.125179414138000   1.0000000
N2   N   0.777806413640630   0.388923784838103   0.624532497457366   1.0000000
N2   N   0.444432188258281   0.888882760795804   0.125150024732734   1.0000000
N2   N   0.277825042637438   0.388921382079392   0.126044207325035   1.0000000
N2   N   0.277785339857577   0.555577546339926   0.125454453403710   1.0000000
N2   N   0.611120061891212   0.388913415335554   0.127144665617007   1.0000000
N2   N   0.777792512271578   0.888878841812590   0.125160464795257   1.0000000
N2   N   0.944476506403030   0.388925789600057   0.125138572269599   1.0000000
N2   N   0.111130280305754   0.555582998591047   0.624820585862001   1.0000000
N2   N   0.277785339857577   0.055541126850988   0.624545546596291   1.0000000
N2   N   0.777815194033967   0.555574263683651   0.624190564537406   1.0000000
N2   N   0.611099451694178   0.055555161131373   0.624858609959394   1.0000000
N2   N   0.944478806539648   0.055560851046030   0.624835643841486   1.0000000
N2   N   0.055505272488539   0.111109589019431   0.375000000000000   1.0000000
N2   N   0.555378525581705   0.610534623472982   0.375000000000000   1.0000000
N2   N   0.389372557497488   0.113271410614343   0.375000000000000   1.0000000
N2   N   0.888197781044588   0.610765557188967   0.375000000000000   1.0000000
N2   N   0.722166554976329   0.111164894269702   0.375000000000000   1.0000000
N2   N   0.055559639607131   0.777784408258402   0.875000000000000   1.0000000
N2   N   0.388907571706299   0.777785151287601   0.875000000000000   1.0000000
N2   N   0.222229405814648   0.277781369573993   0.875000000000000   1.0000000
N2   N   0.722232004731563   0.777788367085968   0.875000000000000   1.0000000
N2   N   0.555567641307959   0.277785529227806   0.875000000000000   1.0000000
N2   N   0.888897716145604   0.277777762545817   0.875000000000000   1.0000000
N2   N   0.222504636794488   0.777918985063913   0.375000000000000   1.0000000
N2   N   0.055505272488539   0.277729016802442   0.375000000000000   1.0000000
N2   N   0.392238020252197   0.284333663002101   0.375000000000000   1.0000000
N2   N   0.555560256079878   0.777491617469006   0.375000000000000   1.0000000
N2   N   0.888305054802475   0.777297463939096   0.375000000000000   1.0000000
N2   N   0.722063803415763   0.277917248507319   0.375000000000000   1.0000000
N2   N   0.055561483306407   0.944454468420345   0.875000000000000   1.0000000
N2   N   0.388907571706299   0.944455753752035   0.875000000000000   1.0000000
N2   N   0.222231000409173   0.444441880249122   0.875000000000000   1.0000000
N2   N   0.555561960787406   0.444447647060367   0.875000000000000   1.0000000
N2   N   0.722233644797604   0.944453202234464   0.875000000000000   1.0000000
N2   N   0.888894108465200   0.444440331600549   0.875000000000000   1.0000000
N2   N   0.055824543616157   0.444270481645946   0.375000000000000   1.0000000
N2   N   0.222680414912870   0.945317303964846   0.375000000000000   1.0000000
N2   N   0.555582821827327   0.944458077580328   0.375000000000000   1.0000000
N2   N   0.392238020252197   0.441237690583431   0.375000000000000   1.0000000
N2   N   0.888805256822734   0.944327116958550   0.375000000000000   1.0000000
N2   N   0.720201028651782   0.444417953445768   0.375000000000000   1.0000000
N2   N   0.222233766158709   0.611109656925915   0.875000000000000   1.0000000
N2   N   0.055559698982443   0.111115817412629   0.875000000000000   1.0000000
N2   N   0.555567641307959   0.611115445413490   0.875000000000000   1.0000000
N2   N   0.388906323111891   0.111126135567708   0.875000000000000   1.0000000
N2   N   0.888888981261607   0.611111157297476   0.875000000000000   1.0000000
N2   N   0.055541965255194   0.610976887369447   0.375000000000000   1.0000000
N2   N   0.722233644797604   0.111113775896475   0.875000000000000   1.0000000
N2   N   0.223527874675223   0.112898959664263   0.375000000000000   1.0000000
N2   N   0.389372557497488   0.609434480216489   0.375000000000000   1.0000000
N2   N   0.720201028651782   0.609116408539352   0.375000000000000   1.0000000
N2   N   0.555560256079878   0.111401971944205   0.375000000000000   1.0000000
N2   N   0.388906323111891   0.611113520877522   0.875000000000000   1.0000000
N2   N   0.888825153876316   0.111079243604829   0.375000000000000   1.0000000
N2   N   0.222234582061701   0.777783957697515   0.875000000000000   1.0000000
N2   N   0.055559698982443   0.277777214903150   0.875000000000000   1.0000000
N2   N   0.388902312847076   0.277788621362854   0.875000000000000   1.0000000
N2   N   0.555570910914038   0.777787295146967   0.875000000000000   1.0000000
N2   N   0.888894108465200   0.777787110197986   0.875000000000000   1.0000000
N2   N   0.722232004731563   0.277776970978929   0.875000000000000   1.0000000
N2   N   0.055541965255194   0.777898411219083   0.375000000000000   1.0000000
N2   N   0.389158219007442   0.777398840905985   0.375000000000000   1.0000000
N2   N   0.222020873083454   0.277677103208395   0.375000000000000   1.0000000
N2   N   0.722063803415763   0.777479888241778   0.375000000000000   1.0000000
N2   N   0.555378525581705   0.278177235442058   0.375000000000000   1.0000000
N2   N   0.888805256822734   0.277811473197522   0.375000000000000   1.0000000
N2   N   0.055561483306407   0.444440348219391   0.875000000000000   1.0000000
N2   N   0.222233766158709   0.944457442566132   0.875000000000000   1.0000000
N2   N   0.555570311349178   0.944451822341253   0.875000000000000   1.0000000
N2   N   0.388902312847076   0.444447024817557   0.875000000000000   1.0000000
N2   N   0.888897716145604   0.944453286933123   0.875000000000000   1.0000000
N2   N   0.055824543616157   0.944887395303540   0.375000000000000   1.0000000
N2   N   0.722222949738003   0.444442075040972   0.875000000000000   1.0000000
N2   N   0.389158219007442   0.945092711434792   0.375000000000000   1.0000000
N2   N   0.223527874675223   0.443962248344296   0.375000000000000   1.0000000
N2   N   0.222680414912870   0.610696444281360   0.375000000000000   1.0000000
N2   N   0.722166554976329   0.944334994039963   0.375000000000000   1.0000000
N2   N   0.888305054802475   0.444340924196711   0.375000000000000   1.0000000
N2   N   0.055559639607131   0.611108564682067   0.875000000000000   1.0000000
N2   N   0.222231000409173   0.111122453493387   0.875000000000000   1.0000000
N2   N   0.722222949738003   0.611114208030369   0.875000000000000   1.0000000
N2   N   0.555570910914038   0.111116949100412   0.875000000000000   1.0000000
N2   N   0.888897447478457   0.111115390405899   0.875000000000000   1.0000000
B2   B   0.110884027098641   0.055726037304129   0.375000000000000   1.0000000
B2   B   0.612447467945081   0.560101827186768   0.375000000000000   1.0000000
B2   B   0.444725955034924   0.055815117509376   0.375000000000000   1.0000000
B2   B   0.944625837408019   0.555504403738469   0.375000000000000   1.0000000
B2   B   0.777762758847935   0.055548046090636   0.375000000000000   1.0000000
B2   B   0.111123449548880   0.722228391441105   0.875000000000000   1.0000000
B2   B   0.444466324072727   0.722285882064730   0.875000000000000   1.0000000
B2   B   0.277707176071482   0.222165579555514   0.875000000000000   1.0000000
B2   B   0.777839881358561   0.722305781964478   0.875000000000000   1.0000000
B2   B   0.611162787566932   0.222173285495180   0.875000000000000   1.0000000
B2   B   0.944420048693323   0.222199921491167   0.875000000000000   1.0000000
B2   B   0.277959102481356   0.722215360009949   0.375000000000000   1.0000000
B2   B   0.109283582390963   0.221308457862146   0.375000000000000   1.0000000
B2   B   0.445811933673643   0.222335243263323   0.375000000000000   1.0000000
B2   B   0.611995731547644   0.723997081011641   0.375000000000000   1.0000000
B2   B   0.944625837408019   0.722454767002885   0.375000000000000   1.0000000
B2   B   0.778009661999033   0.221962910030966   0.375000000000000   1.0000000
B2   B   0.111105210421235   0.888881894100122   0.875000000000000   1.0000000
B2   B   0.444469837454689   0.888901585394012   0.875000000000000   1.0000000
B2   B   0.277707176071482   0.388874929849298   0.875000000000000   1.0000000
B2   B   0.611171769775119   0.388874190104806   0.875000000000000   1.0000000
B2   B   0.777811472916901   0.888951341225146   0.875000000000000   1.0000000
B2   B   0.944454851643873   0.388869841518820   0.875000000000000   1.0000000
B2   B   0.110884027098641   0.388491323127841   0.375000000000000   1.0000000
B2   B   0.277959102481356   0.889077075804735   0.375000000000000   1.0000000
B2   B   0.611334581377339   0.889283627796156   0.375000000000000   1.0000000
B2   B   0.944423964731896   0.889050039780647   0.375000000000000   1.0000000
B2   B   0.777877131598480   0.388398650821099   0.375000000000000   1.0000000
B2   B   0.277751980283573   0.555579736748301   0.875000000000000   1.0000000
B2   B   0.111060257146779   0.055524176661638   0.875000000000000   1.0000000
B2   B   0.611171769775119   0.555630913003639   0.875000000000000   1.0000000
B2   B   0.444466324072727   0.055513775341333   0.875000000000000   1.0000000
B2   B   0.944483447009190   0.555560456335020   0.875000000000000   1.0000000
B2   B   0.111182520992400   0.555408575387350   0.375000000000000   1.0000000
B2   B   0.777793615040498   0.055563474186917   0.875000000000000   1.0000000
B2   B   0.277695416424209   0.055741155707085   0.375000000000000   1.0000000
B2   B   0.445811933673643   0.556810023743655   0.375000000000000   1.0000000
B2   B   0.778397467675730   0.555865400504532   0.375000000000000   1.0000000
B2   B   0.611334581377339   0.055384286914511   0.375000000000000   1.0000000
B2   B   0.444448065213077   0.555619165986197   0.875000000000000   1.0000000
B2   B   0.943971197150239   0.055343378911703   0.375000000000000   1.0000000
B2   B   0.277785483263278   0.722241220012518   0.875000000000000   1.0000000
B2   B   0.111033062827293   0.222183198080312   0.875000000000000   1.0000000
B2   B   0.444448065213077   0.222162232560216   0.875000000000000   1.0000000
B2   B   0.611162787566932   0.722322835405084   0.875000000000000   1.0000000
B2   B   0.944483447009190   0.722256324007511   0.875000000000000   1.0000000
B2   B   0.777811472916901   0.222193465025080   0.875000000000000   1.0000000
B2   B   0.111272619069481   0.722302976201404   0.375000000000000   1.0000000
B2   B   0.444725955034924   0.722244170858884   0.375000000000000   1.0000000
B2   B   0.275657820101979   0.222231750555908   0.375000000000000   1.0000000
B2   B   0.777877131598480   0.722811814110709   0.375000000000000   1.0000000
B2   B   0.611995731547644   0.221331983869331   0.375000000000000   1.0000000
B2   B   0.943971197150239   0.221961151571873   0.375000000000000   1.0000000
B2   B   0.111060257146779   0.388869413818470   0.875000000000000   1.0000000
B2   B   0.277785483263278   0.888877596584084   0.875000000000000   1.0000000
B2   B   0.611149235294540   0.888941241723728   0.875000000000000   1.0000000
B2   B   0.444430505331763   0.388881919332547   0.875000000000000   1.0000000
B2   B   0.944454851643873   0.888918343458388   0.875000000000000   1.0000000
B2   B   0.111182520992400   0.889107278938380   0.375000000000000   1.0000000
B2   B   0.777839881358561   0.388867432727411   0.875000000000000   1.0000000
B2   B   0.444623985662828   0.888978659498078   0.375000000000000   1.0000000
B2   B   0.275657820101979   0.386759402879400   0.375000000000000   1.0000000
B2   B   0.277695416424209   0.555287594050463   0.375000000000000   1.0000000
B2   B   0.612447467945081   0.385678974091641   0.375000000000000   1.0000000
B2   B   0.778009661999033   0.889380085301399   0.375000000000000   1.0000000
B2   B   0.944423964731896   0.388707258284578   0.375000000000000   1.0000000
B2   B   0.111105210421235   0.555556649654445   0.875000000000000   1.0000000
B2   B   0.277751980283573   0.055505576868608   0.875000000000000   1.0000000
B2   B   0.777851625813496   0.555592479573417   0.875000000000000   1.0000000
B2   B   0.611149235294540   0.055541326904142   0.875000000000000   1.0000000
B2   B   0.944420048693323   0.055553460535492   0.875000000000000   1.0000000
B2   B   0.055464493356022   0.111010560013139   0.124750925229729   1.0000000
B2   B   0.555625331338038   0.611380794548778   0.125270435411138   1.0000000
B2   B   0.388765940116686   0.110795098515123   0.124934145759910   1.0000000
B2   B   0.889167084051003   0.611250208692173   0.124788113130681   1.0000000
B2   B   0.722247386909433   0.111083600999366   0.124748995723618   1.0000000
B2   B   0.055646945693254   0.777785096027565   0.625232556943722   1.0000000
B2   B   0.388814907982987   0.777839981677407   0.625235537475806   1.0000000
B2   B   0.222011861802964   0.277672597568151   0.625085506795113   1.0000000
B2   B   0.722360168037430   0.777946660146810   0.625213863900574   1.0000000
B2   B   0.555625331338038   0.277577870122595   0.624729564588862   1.0000000
B2   B   0.888938808889714   0.277806946647162   0.625262390387226   1.0000000
B2   B   0.222195494331511   0.777764413832425   0.124790553831158   1.0000000
B2   B   0.055464493356022   0.277787266676218   0.124750925229729   1.0000000
B2   B   0.388746150124929   0.277534761680970   0.125157705466299   1.0000000
B2   B   0.555543192967232   0.777928539955866   0.124753527065439   1.0000000
B2   B   0.889080812464177   0.777880135751784   0.124742793018766   1.0000000
B2   B   0.722360168037430   0.277746841223955   0.124786136099428   1.0000000
B2   B   0.055548812392712   0.944351557624003   0.625252488973237   1.0000000
B2   B   0.388814907982987   0.944308259638915   0.625235537475806   1.0000000
B2   B   0.222057775757891   0.444547938780606   0.625130774293329   1.0000000
B2   B   0.555709088691021   0.444521211012175   0.624528948080069   1.0000000
B2   B   0.722247386909433   0.944497119243404   0.625251004276383   1.0000000
B2   B   0.889080812464177   0.444534010045730   0.625257206981233   1.0000000
B2   B   0.055548812392712   0.444530588102041   0.124747511026763   1.0000000
B2   B   0.222146906472614   0.944257471140766   0.124791718921607   1.0000000
B2   B   0.555524909416537   0.944429121374932   0.124728015172393   1.0000000
B2   B   0.388746150124929   0.444544721777295   0.125157705466299   1.0000000
B2   B   0.888938808889714   0.944465195575887   0.124737609612773   1.0000000
B2   B   0.722565399593795   0.444551630867818   0.125212189670198   1.0000000
B2   B   0.222146906472614   0.611222768665184   0.625208281078392   1.0000000
B2   B   0.055464493356022   0.111010560013139   0.625249074770271   1.0000000
B2   B   0.555625331338038   0.611380794548778   0.624729564588862   1.0000000
B2   B   0.388765940116686   0.110795098515123   0.625065854240091   1.0000000
B2   B   0.889167084051003   0.611250208692173   0.625211886869321   1.0000000
B2   B   0.055646945693254   0.611195182999026   0.124767443056282   1.0000000
B2   B   0.722247386909433   0.111083600999366   0.625251004276383   1.0000000
B2   B   0.222057775757891   0.110843170310621   0.124869225706673   1.0000000
B2   B   0.388765940116686   0.611304174934904   0.124934145759910   1.0000000
B2   B   0.722565399593795   0.611347102059313   0.125212189670198   1.0000000
B2   B   0.555543192967232   0.110947986344705   0.124753527065439   1.0000000
B2   B   0.388765940116686   0.611304174934904   0.625065854240091   1.0000000
B2   B   0.888882129969371   0.111107731651357   0.124779946689500   1.0000000
B2   B   0.222195494331511   0.777764413832425   0.625209446168842   1.0000000
B2   B   0.055464493356022   0.277787266676218   0.625249074770271   1.0000000
B2   B   0.388746150124929   0.277534761680970   0.624842294533699   1.0000000
B2   B   0.555543192967232   0.777928539955866   0.625246472934560   1.0000000
B2   B   0.889080812464177   0.777880135751784   0.625257206981233   1.0000000
B2   B   0.722360168037430   0.277746841223955   0.625213863900574   1.0000000
B2   B   0.055646945693254   0.777785096027565   0.124767443056282   1.0000000
B2   B   0.388814907982987   0.777839981677407   0.124764462524195   1.0000000
B2   B   0.222011861802964   0.277672597568151   0.124914493204885   1.0000000
B2   B   0.722360168037430   0.777946660146810   0.124786136099428   1.0000000
B2   B   0.555625331338038   0.277577870122595   0.125270435411138   1.0000000
B2   B   0.888938808889714   0.277806946647162   0.124737609612773   1.0000000
B2   B   0.055548812392712   0.444530588102041   0.625252488973237   1.0000000
B2   B   0.222146906472614   0.944257471140766   0.625208281078392   1.0000000
B2   B   0.555524909416537   0.944429121374932   0.625271984827605   1.0000000
B2   B   0.388746150124929   0.444544721777295   0.624842294533699   1.0000000
B2   B   0.888938808889714   0.944465195575887   0.625262390387226   1.0000000
B2   B   0.055548812392712   0.944351557624003   0.124747511026763   1.0000000
B2   B   0.722565399593795   0.444551630867818   0.624787810329802   1.0000000
B2   B   0.388814907982987   0.944308259638915   0.124764462524195   1.0000000
B2   B   0.222057775757891   0.444547938780606   0.124869225706673   1.0000000
B2   B   0.222146906472614   0.611222768665184   0.124791718921607   1.0000000
B2   B   0.555709088691021   0.444521211012175   0.125471051919932   1.0000000
B2   B   0.722247386909433   0.944497119243404   0.124748995723618   1.0000000
B2   B   0.889080812464177   0.444534010045730   0.124742793018766   1.0000000
B2   B   0.055646945693254   0.611195182999026   0.625232556943722   1.0000000
B2   B   0.222057775757891   0.110843170310621   0.625130774293329   1.0000000
B2   B   0.722565399593795   0.611347102059313   0.624787810329802   1.0000000
B2   B   0.555543192967232   0.110947986344705   0.625246472934560   1.0000000
B2   B   0.888882129969371   0.111107731651357   0.625220053310501   1.0000000


