data_1
_audit_creation_method   'vasp2cif'
_cell_length_a    14.93631414619966
_cell_length_b    14.936314146199727
_cell_length_c    13.341276283792837
_cell_angle_alpha    90.0
_cell_angle_beta    90.0
_cell_angle_gamma    119.99999999999984

_symmetry_space_group_name_H-M    'P 1'
loop_
_atom_site_label
_atom_site_type_symbol
_atom_site_fract_x
_atom_site_fract_y
_atom_site_fract_z
_atom_site_occupancy
C2   C   0.439043282362733   0.386188307848035   0.375000000000000   1.0000000
C2   C   0.551834575287849   0.442583954310589   0.375000000000000   1.0000000
N2   N   0.111113142312187   0.055559715227171   0.125059992749203   1.0000000
N2   N   0.611127126740686   0.555630237912247   0.124661962882372   1.0000000
N2   N   0.444446973786893   0.055563818100418   0.125066834111233   1.0000000
N2   N   0.944432276111524   0.555551658895714   0.125006598579444   1.0000000
N2   N   0.777793075469010   0.055563204401173   0.124967372533464   1.0000000
N2   N   0.111104448613049   0.722218890973189   0.625003291418400   1.0000000
N2   N   0.444446973786893   0.722216489019811   0.624933165888767   1.0000000
N2   N   0.277783938530685   0.222238805774246   0.624903777796965   1.0000000
N2   N   0.777787610583105   0.722245101421254   0.625012694088306   1.0000000
N2   N   0.611140310696303   0.222192418136826   0.625081513203094   1.0000000
N2   N   0.944450750384042   0.222226471753348   0.624991598587188   1.0000000
N2   N   0.277775025671204   0.722216685753256   0.125021042318071   1.0000000
N2   N   0.111100939290398   0.222217136311867   0.125056915848690   1.0000000
N2   N   0.444469038978388   0.222250063337197   0.125161471121447   1.0000000
N2   N   0.611140310696303   0.722281225892806   0.124918486796906   1.0000000
N2   N   0.944432276111524   0.722213950549146   0.125006598579444   1.0000000
N2   N   0.777801748721975   0.222215856410821   0.124981068216278   1.0000000
N2   N   0.111108190482813   0.888887612004648   0.624973646391267   1.0000000
N2   N   0.444439020046985   0.888886176690154   0.624983068311628   1.0000000
N2   N   0.277783938530685   0.388878466089768   0.624903777796965   1.0000000
N2   N   0.611127126740686   0.388830222161775   0.625338037117628   1.0000000
N2   N   0.777801748721975   0.888919225644482   0.625018931783722   1.0000000
N2   N   0.944453314029217   0.388890647043339   0.624995155981486   1.0000000
N2   N   0.111113142312187   0.388886760418345   0.125059992749203   1.0000000
N2   N   0.277775025671204   0.888891673251284   0.125021042318071   1.0000000
N2   N   0.611118598280066   0.888907894725659   0.124995676922347   1.0000000
N2   N   0.444463632549431   0.388898482941376   0.125029435651038   1.0000000
N2   N   0.944453314029217   0.888896000319207   0.125004844018514   1.0000000
N2   N   0.777787610583105   0.388875842495180   0.124987305911694   1.0000000
N2   N   0.277784649451557   0.555547376146153   0.624917027932864   1.0000000
N2   N   0.111113142312187   0.055559715227171   0.624940007250797   1.0000000
N2   N   0.611127126740686   0.555630237912247   0.625338037117628   1.0000000
N2   N   0.444446973786893   0.055563818100418   0.624933165888767   1.0000000
N2   N   0.944432276111524   0.555551658895714   0.624993401420556   1.0000000
N2   N   0.111108190482813   0.555553911811493   0.125026353608733   1.0000000
N2   N   0.777793075469010   0.055563204401173   0.625032627466535   1.0000000
N2   N   0.277784649451557   0.055570606638739   0.125082972067136   1.0000000
N2   N   0.444469038978388   0.555552308974527   0.125161471121447   1.0000000
N2   N   0.777747312998275   0.555540323165806   0.125022631809100   1.0000000
N2   N   0.611118598280066   0.055544036887728   0.124995676922347   1.0000000
N2   N   0.444469038978388   0.555552308974527   0.624838528878553   1.0000000
N2   N   0.944450750384042   0.055557611964037   0.125008401412812   1.0000000
N2   N   0.277775025671204   0.722216685753256   0.624978957681929   1.0000000
N2   N   0.111100939290398   0.222217136311867   0.624943084151310   1.0000000
N2   N   0.444469038978388   0.222250063337197   0.624838528878553   1.0000000
N2   N   0.611140310696303   0.722281225892806   0.625081513203094   1.0000000
N2   N   0.944432276111524   0.722213950549146   0.624993401420556   1.0000000
N2   N   0.777801748721975   0.222215856410821   0.625018931783722   1.0000000
N2   N   0.111104448613049   0.722218890973189   0.124996708581600   1.0000000
N2   N   0.444446973786893   0.722216489019811   0.125066834111233   1.0000000
N2   N   0.277783938530685   0.222238805774246   0.125096222203035   1.0000000
N2   N   0.777787610583105   0.722245101421254   0.124987305911694   1.0000000
N2   N   0.611140310696303   0.222192418136826   0.124918486796906   1.0000000
N2   N   0.944450750384042   0.222226471753348   0.125008401412812   1.0000000
N2   N   0.111113142312187   0.388886760418345   0.624940007250797   1.0000000
N2   N   0.277775025671204   0.888891673251284   0.624978957681929   1.0000000
N2   N   0.611118598280066   0.888907894725659   0.625004323077653   1.0000000
N2   N   0.444463632549431   0.388898482941376   0.624970564348962   1.0000000
N2   N   0.944453314029217   0.888896000319207   0.624995155981486   1.0000000
N2   N   0.111108190482813   0.888887612004648   0.125026353608733   1.0000000
N2   N   0.777787610583105   0.388875842495180   0.625012694088306   1.0000000
N2   N   0.444439020046985   0.888886176690154   0.125016931688372   1.0000000
N2   N   0.277783938530685   0.388878466089768   0.125096222203035   1.0000000
N2   N   0.277784649451557   0.555547376146153   0.125082972067136   1.0000000
N2   N   0.611127126740686   0.388830222161775   0.124661962882372   1.0000000
N2   N   0.777801748721975   0.888919225644482   0.124981068216278   1.0000000
N2   N   0.944453314029217   0.388890647043339   0.125004844018514   1.0000000
N2   N   0.111108190482813   0.555553911811493   0.624973646391267   1.0000000
N2   N   0.277784649451557   0.055570606638739   0.624917027932864   1.0000000
N2   N   0.777747312998275   0.555540323165806   0.624977368190900   1.0000000
N2   N   0.611118598280066   0.055544036887728   0.625004323077653   1.0000000
N2   N   0.944450750384042   0.055557611964037   0.624991598587188   1.0000000
N2   N   0.055498772728992   0.111069129659437   0.375000000000000   1.0000000
N2   N   0.556026464410873   0.613565139091576   0.375000000000000   1.0000000
N2   N   0.388911766758161   0.112211441080558   0.375000000000000   1.0000000
N2   N   0.889052073679693   0.611192703506518   0.375000000000000   1.0000000
N2   N   0.722301514482920   0.110958190257479   0.375000000000000   1.0000000
N2   N   0.055549711978955   0.777775600809965   0.875000000000000   1.0000000
N2   N   0.388884533432765   0.777776898101304   0.875000000000000   1.0000000
N2   N   0.222213986912026   0.277773660122684   0.875000000000000   1.0000000
N2   N   0.722216198917792   0.777774797744927   0.875000000000000   1.0000000
N2   N   0.555544526237565   0.277767467280878   0.875000000000000   1.0000000
N2   N   0.888884818801268   0.277777086224617   0.875000000000000   1.0000000
N2   N   0.222330217421742   0.777831775377542   0.375000000000000   1.0000000
N2   N   0.055498772728992   0.277762976402890   0.375000000000000   1.0000000
N2   N   0.388142106466449   0.279854879867099   0.375000000000000   1.0000000
N2   N   0.555462404138266   0.778536795006122   0.375000000000000   1.0000000
N2   N   0.889491320766140   0.778362732477383   0.375000000000000   1.0000000
N2   N   0.722622727990621   0.277413601512176   0.375000000000000   1.0000000
N2   N   0.055549836201040   0.944441348224360   0.875000000000000   1.0000000
N2   N   0.388884533432765   0.944440968664797   0.875000000000000   1.0000000
N2   N   0.222215863931337   0.444442051356784   0.875000000000000   1.0000000
N2   N   0.555545773979148   0.444439553656242   0.875000000000000   1.0000000
N2   N   0.722213577591659   0.944440588271540   0.875000000000000   1.0000000
N2   N   0.888885154321442   0.444442242899970   0.875000000000000   1.0000000
N2   N   0.055877717376641   0.444488088039063   0.375000000000000   1.0000000
N2   N   0.222409743878884   0.944681753912267   0.375000000000000   1.0000000
N2   N   0.555387074405504   0.944360203869420   0.375000000000000   1.0000000
N2   N   0.388142106466449   0.441620559932679   0.375000000000000   1.0000000
N2   N   0.889137080469401   0.944718366657600   0.375000000000000   1.0000000
N2   N   0.723071714739324   0.444114361978359   0.375000000000000   1.0000000
N2   N   0.222216571685383   0.611107940157381   0.875000000000000   1.0000000
N2   N   0.055548829318020   0.111105888493087   0.875000000000000   1.0000000
N2   N   0.555544526237565   0.611110392290022   0.875000000000000   1.0000000
N2   N   0.388883543873696   0.111106997322031   0.875000000000000   1.0000000
N2   N   0.888883493057272   0.611108413195308   0.875000000000000   1.0000000
N2   N   0.055786595501754   0.611205898185262   0.375000000000000   1.0000000
N2   N   0.722213577591659   0.111106322653455   0.875000000000000   1.0000000
N2   N   0.222322436570658   0.111267605637153   0.375000000000000   1.0000000
N2   N   0.388911766758161   0.610033659010946   0.375000000000000   1.0000000
N2   N   0.723071714739324   0.612290686094301   0.375000000000000   1.0000000
N2   N   0.555462404138266   0.110258942465480   0.375000000000000   1.0000000
N2   N   0.388883543873696   0.611109879885007   0.875000000000000   1.0000000
N2   N   0.889011048432028   0.111172190882686   0.375000000000000   1.0000000
N2   N   0.222217784821626   0.777775559077481   0.875000000000000   1.0000000
N2   N   0.055548829318020   0.277776274158269   0.875000000000000   1.0000000
N2   N   0.388883013758745   0.277773529987087   0.875000000000000   1.0000000
N2   N   0.555545735532462   0.777776894780327   0.875000000000000   1.0000000
N2   N   0.888885154321442   0.777776244754815   0.875000000000000   1.0000000
N2   N   0.722216198917792   0.277774734506202   0.875000000000000   1.0000000
N2   N   0.055786595501754   0.777914030649828   0.375000000000000   1.0000000
N2   N   0.388835678768643   0.777506738978072   0.375000000000000   1.0000000
N2   N   0.221425649783691   0.277379491558510   0.375000000000000   1.0000000
N2   N   0.722622727990621   0.778542459811780   0.375000000000000   1.0000000
N2   N   0.556026464410873   0.275794658652633   0.375000000000000   1.0000000
N2   N   0.889137080469401   0.277752047145136   0.375000000000000   1.0000000
N2   N   0.055549836201040   0.444441821310009   0.875000000000000   1.0000000
N2   N   0.222216571685383   0.944441964861338   0.875000000000000   1.0000000
N2   N   0.555545956407388   0.944439644870355   0.875000000000000   1.0000000
N2   N   0.388883013758745   0.444442817104993   0.875000000000000   1.0000000
N2   N   0.888884818801268   0.944441065909994   0.875000000000000   1.0000000
N2   N   0.055877717376641   0.944722962670899   0.375000000000000   1.0000000
N2   N   0.722215654660266   0.444441686821182   0.875000000000000   1.0000000
N2   N   0.388835678768643   0.944662273123907   0.375000000000000   1.0000000
N2   N   0.222322436570658   0.444388164266841   0.375000000000000   1.0000000
N2   N   0.222409743878884   0.611061323299952   0.375000000000000   1.0000000
N2   N   0.722301514482920   0.944676657558777   0.375000000000000   1.0000000
N2   N   0.889491320766140   0.444461921622093   0.375000000000000   1.0000000
N2   N   0.055549711978955   0.611107444502318   0.875000000000000   1.0000000
N2   N   0.222215863931337   0.111107145907889   0.875000000000000   1.0000000
N2   N   0.722215654660266   0.611107301172412   0.875000000000000   1.0000000
N2   N   0.555545735532462   0.111102174085470   0.875000000000000   1.0000000
N2   N   0.888883386896190   0.111108360114766   0.875000000000000   1.0000000
B2   B   0.111116222962783   0.055613132741397   0.375000000000000   1.0000000
B2   B   0.612034532081649   0.558599160958697   0.375000000000000   1.0000000
B2   B   0.444513814025321   0.055890139644089   0.375000000000000   1.0000000
B2   B   0.944622188052006   0.555573299245852   0.375000000000000   1.0000000
B2   B   0.777866215701920   0.055599774517632   0.375000000000000   1.0000000
B2   B   0.111099350765523   0.722216342049430   0.875000000000000   1.0000000
B2   B   0.444448249933405   0.722226115326552   0.875000000000000   1.0000000
B2   B   0.277780637120031   0.222222295506762   0.875000000000000   1.0000000
B2   B   0.777763148260612   0.722209229524827   0.875000000000000   1.0000000
B2   B   0.611106133323844   0.222224085781796   0.875000000000000   1.0000000
B2   B   0.944427533248810   0.222217592309916   0.875000000000000   1.0000000
B2   B   0.277808586724130   0.722206519739625   0.375000000000000   1.0000000
B2   B   0.110383744518281   0.221858538925809   0.375000000000000   1.0000000
B2   B   0.445223939148654   0.223279904716190   0.375000000000000   1.0000000
B2   B   0.611399156826218   0.723680224413672   0.375000000000000   1.0000000
B2   B   0.944622188052006   0.722382222139490   0.375000000000000   1.0000000
B2   B   0.778000217775431   0.222038753710253   0.375000000000000   1.0000000
B2   B   0.111099284537232   0.888879750352556   0.875000000000000   1.0000000
B2   B   0.444444673506444   0.888889003419886   0.875000000000000   1.0000000
B2   B   0.277780637120031   0.388891674946598   0.875000000000000   1.0000000
B2   B   0.611108131723721   0.388887970250047   0.875000000000000   1.0000000
B2   B   0.777764254464190   0.888875696456834   0.875000000000000   1.0000000
B2   B   0.944428352291560   0.388885464902661   0.875000000000000   1.0000000
B2   B   0.111116222962783   0.388836423554714   0.375000000000000   1.0000000
B2   B   0.277808586724130   0.888935400317834   0.375000000000000   1.0000000
B2   B   0.611161010779300   0.889264629305477   0.375000000000000   1.0000000
B2   B   0.944753022585492   0.889244642301256   0.375000000000000   1.0000000
B2   B   0.778430519914531   0.388739321478026   0.375000000000000   1.0000000
B2   B   0.277777800477169   0.555558812289474   0.875000000000000   1.0000000
B2   B   0.111099137330563   0.055545564546680   0.875000000000000   1.0000000
B2   B   0.611108131723721   0.555553494807002   0.875000000000000   1.0000000
B2   B   0.444448249933405   0.055555467940189   0.875000000000000   1.0000000
B2   B   0.944427617625000   0.555549586603583   0.875000000000000   1.0000000
B2   B   0.111228119607444   0.555568652045120   0.375000000000000   1.0000000
B2   B   0.777763443162250   0.055548388247793   0.875000000000000   1.0000000
B2   B   0.277761188046338   0.055651273466936   0.375000000000000   1.0000000
B2   B   0.445223939148654   0.555277367765800   0.375000000000000   1.0000000
B2   B   0.777785300824331   0.555559317078833   0.375000000000000   1.0000000
B2   B   0.611161010779300   0.055229714807159   0.375000000000000   1.0000000
B2   B   0.444456624039097   0.555562364417516   0.875000000000000   1.0000000
B2   B   0.944420116035728   0.055597057906397   0.375000000000000   1.0000000
B2   B   0.277775797509386   0.722222836870242   0.875000000000000   1.0000000
B2   B   0.111099343306511   0.222216338319923   0.875000000000000   1.0000000
B2   B   0.444456624039097   0.222227592954917   0.875000000000000   1.0000000
B2   B   0.611106133323844   0.722215380875376   0.875000000000000   1.0000000
B2   B   0.944427617625000   0.722211364354753   0.875000000000000   1.0000000
B2   B   0.777764254464190   0.222221891340678   0.875000000000000   1.0000000
B2   B   0.111211783569951   0.722272558451640   0.375000000000000   1.0000000
B2   B   0.444513814025321   0.721957007714569   0.375000000000000   1.0000000
B2   B   0.276541139794476   0.221792010295590   0.375000000000000   1.0000000
B2   B   0.778430519914531   0.723024531769833   0.375000000000000   1.0000000
B2   B   0.611399156826218   0.221052265745875   0.375000000000000   1.0000000
B2   B   0.944420116035728   0.222156391462666   0.375000000000000   1.0000000
B2   B   0.111099137330563   0.388886906117212   0.875000000000000   1.0000000
B2   B   0.277775797509386   0.888886293972473   0.875000000000000   1.0000000
B2   B   0.611104654259211   0.888884297598375   0.875000000000000   1.0000000
B2   B   0.444459365120476   0.388896349226899   0.875000000000000   1.0000000
B2   B   0.944428352291560   0.888876220722228   0.875000000000000   1.0000000
B2   B   0.111228119607444   0.888992800895653   0.375000000000000   1.0000000
B2   B   0.777763148260612   0.388887252069113   0.875000000000000   1.0000000
B2   B   0.444386879443903   0.888860106388612   0.375000000000000   1.0000000
B2   B   0.276541139794476   0.388082462832215   0.375000000000000   1.0000000
B2   B   0.277761188046338   0.555443247912737   0.375000000000000   1.0000000
B2   B   0.612034532081649   0.386768704456281   0.375000000000000   1.0000000
B2   B   0.778000217775431   0.889294797398506   0.375000000000000   1.0000000
B2   B   0.944753022585492   0.388841713617557   0.375000000000000   1.0000000
B2   B   0.111099284537232   0.555552867518005   0.875000000000000   1.0000000
B2   B   0.277777800477169   0.055552321521030   0.875000000000000   1.0000000
B2   B   0.777759982492651   0.555546657912993   0.875000000000000   1.0000000
B2   B   0.611104654259211   0.055553689994165   0.875000000000000   1.0000000
B2   B   0.944427533248810   0.055543274272229   0.875000000000000   1.0000000
B2   B   0.055527207500805   0.111092923141291   0.125002213992659   1.0000000
B2   B   0.555646202258323   0.611155694218553   0.124947528093309   1.0000000
B2   B   0.388916201074679   0.111133391729527   0.125042796448444   1.0000000
B2   B   0.888834752752695   0.611084043043019   0.125032870839683   1.0000000
B2   B   0.722236395636045   0.111116589229912   0.124996305236547   1.0000000
B2   B   0.055521350783028   0.777753769781709   0.624996356041849   1.0000000
B2   B   0.388895916702510   0.777779123555855   0.624994875763509   1.0000000
B2   B   0.222207313302411   0.277770323317870   0.625044631200222   1.0000000
B2   B   0.722234645167915   0.777795871015435   0.625005172786388   1.0000000
B2   B   0.555646202258323   0.277823841373106   0.625052471906691   1.0000000
B2   B   0.888878849693764   0.277774697680788   0.625000490015107   1.0000000
B2   B   0.222204427386232   0.777768880359787   0.124996183615074   1.0000000
B2   B   0.055527207500805   0.277767617692843   0.125002213992659   1.0000000
B2   B   0.388951311303515   0.277833218294426   0.124981161030981   1.0000000
B2   B   0.555602099940073   0.777800331777107   0.125003246664781   1.0000000
B2   B   0.888862386628005   0.777762972265021   0.125015514129147   1.0000000
B2   B   0.722234645167915   0.277772107485809   0.124994827213612   1.0000000
B2   B   0.055530432944838   0.944423166469927   0.624993125351719   1.0000000
B2   B   0.388895916702510   0.944450126479990   0.624994875763509   1.0000000
B2   B   0.222216892939840   0.444441667620668   0.624989370622223   1.0000000
B2   B   0.555668121572778   0.444500727453053   0.624646211895241   1.0000000
B2   B   0.722236395636045   0.944453139739468   0.625003694763453   1.0000000
B2   B   0.888862386628005   0.444432747696319   0.624984485870852   1.0000000
B2   B   0.055530432944838   0.444440599808233   0.125006874648281   1.0000000
B2   B   0.222208920788870   0.944432115799869   0.125002644314940   1.0000000
B2   B   0.555578011790046   0.944455672561691   0.124998996842552   1.0000000
B2   B   0.388951311303515   0.444451426342425   0.124981161030981   1.0000000
B2   B   0.888878849693764   0.944437485346310   0.124999509984893   1.0000000
B2   B   0.722200799214071   0.444421937955567   0.125008880803514   1.0000000
B2   B   0.222208920788870   0.611110138322337   0.624997355685060   1.0000000
B2   B   0.055527207500805   0.111092923141291   0.624997786007341   1.0000000
B2   B   0.555646202258323   0.611155694218553   0.625052471906691   1.0000000
B2   B   0.388916201074679   0.111133391729527   0.624957203551556   1.0000000
B2   B   0.888834752752695   0.611084043043019   0.624967129160317   1.0000000
B2   B   0.055521350783028   0.611100914334654   0.125003643958151   1.0000000
B2   B   0.722236395636045   0.111116589229912   0.625003694763453   1.0000000
B2   B   0.222216892939840   0.111108558652507   0.125010629377777   1.0000000
B2   B   0.388916201074679   0.611116142678494   0.125042796448444   1.0000000
B2   B   0.722200799214071   0.611112194591840   0.125008880803514   1.0000000
B2   B   0.555602099940073   0.111135101496302   0.125003246664781   1.0000000
B2   B   0.388916201074679   0.611116142678494   0.624957203551556   1.0000000
B2   B   0.888880390831813   0.111106862082578   0.124991939540421   1.0000000
B2   B   0.222204427386232   0.777768880359787   0.625003816384926   1.0000000
B2   B   0.055527207500805   0.277767617692843   0.624997786007341   1.0000000
B2   B   0.388951311303515   0.277833218294426   0.625018838969019   1.0000000
B2   B   0.555602099940073   0.777800331777107   0.624996753335219   1.0000000
B2   B   0.888862386628005   0.777762972265021   0.624984485870852   1.0000000
B2   B   0.722234645167915   0.277772107485809   0.625005172786388   1.0000000
B2   B   0.055521350783028   0.777753769781709   0.125003643958151   1.0000000
B2   B   0.388895916702510   0.777779123555855   0.125005124236490   1.0000000
B2   B   0.222207313302411   0.277770323317870   0.124955368799778   1.0000000
B2   B   0.722234645167915   0.777795871015435   0.124994827213612   1.0000000
B2   B   0.555646202258323   0.277823841373106   0.124947528093309   1.0000000
B2   B   0.888878849693764   0.277774697680788   0.124999509984893   1.0000000
B2   B   0.055530432944838   0.444440599808233   0.624993125351719   1.0000000
B2   B   0.222208920788870   0.944432115799869   0.624997355685060   1.0000000
B2   B   0.555578011790046   0.944455672561691   0.625001003157448   1.0000000
B2   B   0.388951311303515   0.444451426342425   0.625018838969019   1.0000000
B2   B   0.888878849693764   0.944437485346310   0.625000490015107   1.0000000
B2   B   0.055530432944838   0.944423166469927   0.125006874648281   1.0000000
B2   B   0.722200799214071   0.444421937955567   0.624991119196486   1.0000000
B2   B   0.388895916702510   0.944450126479990   0.125005124236490   1.0000000
B2   B   0.222216892939840   0.444441667620668   0.125010629377777   1.0000000
B2   B   0.222208920788870   0.611110138322337   0.125002644314940   1.0000000
B2   B   0.555668121572778   0.444500727453053   0.125353788104759   1.0000000
B2   B   0.722236395636045   0.944453139739468   0.124996305236547   1.0000000
B2   B   0.888862386628005   0.444432747696319   0.125015514129147   1.0000000
B2   B   0.055521350783028   0.611100914334654   0.624996356041849   1.0000000
B2   B   0.222216892939840   0.111108558652507   0.624989370622223   1.0000000
B2   B   0.722200799214071   0.611112194591840   0.624991119196486   1.0000000
B2   B   0.555602099940073   0.111135101496302   0.624996753335219   1.0000000
B2   B   0.888880390831813   0.111106862082578   0.625008060459579   1.0000000


