data_1
_audit_creation_method   'vasp2cif'
_cell_length_a    17.52789999999977
_cell_length_b    17.52789999999977
_cell_length_c    15.0
_cell_angle_alpha    90.0
_cell_angle_beta    90.0
_cell_angle_gamma    119.99999999999916

_symmetry_space_group_name_H-M    'P 1'
loop_
_atom_site_label
_atom_site_type_symbol
_atom_site_fract_x
_atom_site_fract_y
_atom_site_fract_z
_atom_site_occupancy
S2   S   0.413267519673029   0.492348962460512   0.111787595876034   1.0000000
B2   B   0.905171840260591   0.952648448077305   0.110995069780536   1.0000000
B2   B   0.906399478964549   0.096265005357421   0.111051339361552   1.0000000
B2   B   0.906767011841604   0.239097852766301   0.111114538312341   1.0000000
B2   B   0.906399478964549   0.381563167298140   0.111051339361552   1.0000000
B2   B   0.905171840260591   0.523953797431288   0.110995069780536   1.0000000
B2   B   0.903909142866712   0.666345581785530   0.111043367257532   1.0000000
B2   B   0.903909142866712   0.808993966329162   0.111043367257532   1.0000000
B2   B   0.047150407236485   0.951726769285971   0.111002509425455   1.0000000
B2   B   0.048388680985434   0.095300861539448   0.111000224501496   1.0000000
B2   B   0.049893888945665   0.239231499039613   0.111029518683520   1.0000000
B2   B   0.049893888945665   0.382092795153052   0.111029518683520   1.0000000
B2   B   0.048388680985434   0.524518224693981   0.111000224501496   1.0000000
B2   B   0.047150407236485   0.666855754754517   0.111002509425455   1.0000000
B2   B   0.046933133344384   0.809182625074198   0.110975615230357   1.0000000
B2   B   0.189984315450914   0.951636850459660   0.111001360103196   1.0000000
B2   B   0.190088505215289   0.093695730555455   0.111050957646036   1.0000000
B2   B   0.191733799461254   0.237440913054733   0.110988740893258   1.0000000
B2   B   0.194098319945430   0.382764362596215   0.111020717241118   1.0000000
B2   B   0.191733799461254   0.525723291654515   0.110988740893258   1.0000000
B2   B   0.190088505215289   0.667823179907843   0.111050957646036   1.0000000
B2   B   0.189984315450914   0.809779581795273   0.111001360103196   1.0000000
B2   B   0.333291737891376   0.952361927347193   0.111022709588724   1.0000000
B2   B   0.333239284994433   0.093143369606209   0.111079966034523   1.0000000
B2   B   0.333071029490912   0.233349607397119   0.111021371898819   1.0000000
B2   B   0.335357466058615   0.374007565565445   0.111226243000023   1.0000000
B2   B   0.335357466058615   0.532780305740171   0.111226243000023   1.0000000
B2   B   0.333071029490912   0.671151827340785   0.111021371898819   1.0000000
B2   B   0.333239284994433   0.811526320635210   0.111079966034523   1.0000000
B2   B   0.476918647459924   0.953755528497052   0.111018403267004   1.0000000
B2   B   0.476918647459924   0.094593524209873   0.111018403267004   1.0000000
B2   B   0.476837176654087   0.235173515827351   0.111007643601908   1.0000000
B2   B   0.477201549259238   0.375764921217553   0.110955246116685   1.0000000
B2   B   0.477201549259238   0.672867033288671   0.110955246116685   1.0000000
B2   B   0.476837176654087   0.813094066073744   0.111007643601908   1.0000000
B2   B   0.620467053962219   0.954084241258108   0.110989630727088   1.0000000
B2   B   0.620457438878999   0.095943066284995   0.110993251352554   1.0000000
B2   B   0.620467053962219   0.237813217951104   0.110989630727088   1.0000000
B2   B   0.620347289711275   0.379972725986113   0.110968389796933   1.0000000
B2   B   0.616976142183319   0.521645062957883   0.111021202807031   1.0000000
B2   B   0.616976142183326   0.666761484473445   0.111021202807031   1.0000000
B2   B   0.620347289711275   0.811804968972184   0.110968389796933   1.0000000
B2   B   0.763273214781544   0.953666015244377   0.110981689622686   1.0000000
B2   B   0.763629287831231   0.096352002426144   0.111027784877919   1.0000000
B2   B   0.763629287831231   0.238705979096070   0.111027784877919   1.0000000
B2   B   0.763273214781544   0.381037604784131   0.110981689622686   1.0000000
B2   B   0.761738904812417   0.523223008883516   0.111026072561413   1.0000000
B2   B   0.760161148666194   0.665795776957094   0.111111982420356   1.0000000
B2   B   0.761738904812417   0.809946301176887   0.111026072561413   1.0000000
N2   N   0.952035491008425   0.904367588490980   0.110992996345402   1.0000000
N2   N   0.953330910211840   0.048079546562570   0.110993627064672   1.0000000
N2   N   0.954619348307736   0.191709055510050   0.111072838513193   1.0000000
N2   N   0.954619348307736   0.334337274915676   0.111072838513193   1.0000000
N2   N   0.953330910211833   0.476678345767275   0.110993627064672   1.0000000
N2   N   0.952035491008418   0.619096596192427   0.110992996345402   1.0000000
N2   N   0.951649305313330   0.761538999494167   0.111004819249017   1.0000000
N2   N   0.094763137176887   0.904255312898102   0.110962419908073   1.0000000
N2   N   0.095116752481881   0.046934118286801   0.111002575839125   1.0000000
N2   N   0.096721630862033   0.190847395489464   0.110969315148942   1.0000000
N2   N   0.098571553827108   0.335000123750555   0.110990078091503   1.0000000
N2   N   0.096721630862033   0.477302929046569   0.110969315148942   1.0000000
N2   N   0.095116752481881   0.619611327870089   0.111002575839125   1.0000000
N2   N   0.094763137176887   0.761938229509791   0.110962419908073   1.0000000
N2   N   0.237934803864420   0.904682604547713   0.110976585710388   1.0000000
N2   N   0.237910620924779   0.046471603497409   0.111049898149171   1.0000000
N2   N   0.238069994232786   0.188629520256282   0.111015165971435   1.0000000
N2   N   0.240963700386903   0.333576664626496   0.111010100781274   1.0000000
N2   N   0.240963700386903   0.478815729434401   0.111010100781274   1.0000000
N2   N   0.238069994232786   0.620869167651486   0.111015165971435   1.0000000
N2   N   0.237910620924779   0.762867711102359   0.111049898149171   1.0000000
N2   N   0.381500071695039   0.906059508838710   0.111026349150446   1.0000000
N2   N   0.381500071695046   0.046869256531331   0.111026349150446   1.0000000
N2   N   0.381427440997894   0.187373473736680   0.111034475715967   1.0000000
N2   N   0.381238417525300   0.326900306663114   0.110990020728683   1.0000000
N2   N   0.381238417525300   0.625766804537174   0.110990020728683   1.0000000
N2   N   0.381427440997894   0.765482660936209   0.111034475715967   1.0000000
N2   N   0.525136701550317   0.907420887226318   0.110997836593617   1.0000000
N2   N   0.525146152632228   0.048286567375614   0.110981269290259   1.0000000
N2   N   0.525136701550317   0.189144507999008   0.110997836593617   1.0000000
N2   N   0.525124424767146   0.329499853018313   0.110942755764401   1.0000000
N2   N   0.524152741064966   0.468010155065080   0.110901993645807   1.0000000
N2   N   0.524152741064966   0.627571279674883   0.110901993645807   1.0000000
N2   N   0.525124424767146   0.767053265423830   0.110942755764401   1.0000000
N2   N   0.668243288308750   0.906788614598407   0.110962137594032   1.0000000
N2   N   0.668423475315269   0.048959142614846   0.110980266510898   1.0000000
N2   N   0.668423475315276   0.190891314819423   0.110980266510898   1.0000000
N2   N   0.668243288308750   0.332883367385347   0.110962137594032   1.0000000
N2   N   0.666998246007213   0.475135967328957   0.110981706254341   1.0000000
N2   N   0.664239396759163   0.617834045217584   0.111064604712907   1.0000000
N2   N   0.666998246007213   0.763290972353252   0.110981706254341   1.0000000
N2   N   0.810147344405037   0.905414530900565   0.110974644507656   1.0000000
N2   N   0.811268675428169   0.048895814087502   0.111007166467733   1.0000000
N2   N   0.811538195842503   0.191482588980258   0.111052008732449   1.0000000
N2   N   0.811268675428169   0.333799843458672   0.111007166467733   1.0000000
N2   N   0.810147344405037   0.476161507178466   0.110974644507656   1.0000000
N2   N   0.808567998757171   0.618644538092466   0.111069166315521   1.0000000
N2   N   0.808567998757179   0.761352154339715   0.111069166315521   1.0000000


