data_1
_audit_creation_method   'vasp2cif'
_cell_length_a    17.52789999999977
_cell_length_b    17.52789999999977
_cell_length_c    15.0
_cell_angle_alpha    90.0
_cell_angle_beta    90.0
_cell_angle_gamma    119.99999999999916

_symmetry_space_group_name_H-M    'P 1'
loop_
_atom_site_label
_atom_site_type_symbol
_atom_site_fract_x
_atom_site_fract_y
_atom_site_fract_z
_atom_site_occupancy
B2   B   0.904673310177336   0.952301689634339   0.111010624307366   1.0000000
B2   B   0.904701368766161   0.095259366642264   0.111040462513579   1.0000000
B2   B   0.904728565705671   0.238183431689567   0.111042736717564   1.0000000
B2   B   0.904582161243872   0.380992470947339   0.110997444998888   1.0000000
B2   B   0.904269838852643   0.523834503350734   0.111003382928664   1.0000000
B2   B   0.905790026541645   0.666979991587431   0.111058689002885   1.0000000
B2   B   0.904420619017227   0.809000559743191   0.111031124541625   1.0000000
B2   B   0.047426855570872   0.952192078092585   0.111007217995769   1.0000000
B2   B   0.047532093346229   0.095188784222605   0.111010343949787   1.0000000
B2   B   0.047827094605446   0.238316172559289   0.111005232264417   1.0000000
B2   B   0.047749880978112   0.380974772003783   0.111017148528430   1.0000000
B2   B   0.047348269250363   0.523708843844968   0.111008881518682   1.0000000
B2   B   0.047791105277401   0.666693730146692   0.111024687658582   1.0000000
B2   B   0.047853160427052   0.809635478747918   0.110998360393967   1.0000000
B2   B   0.190446153224250   0.952261706295358   0.111001928346220   1.0000000
B2   B   0.190460490168176   0.095123647630312   0.111040560654901   1.0000000
B2   B   0.190486295281275   0.238074586356116   0.111002429735011   1.0000000
B2   B   0.191451477087718   0.381456210535969   0.111003391725600   1.0000000
B2   B   0.190487222522127   0.523685683173527   0.111052834006439   1.0000000
B2   B   0.190144684293256   0.666703367879741   0.111051988766462   1.0000000
B2   B   0.190510369132791   0.809574808768392   0.111000541754532   1.0000000
B2   B   0.333349655016615   0.952300508137227   0.111019002192400   1.0000000
B2   B   0.333204399569656   0.094564635665065   0.111070951432100   1.0000000
B2   B   0.333641226150234   0.237191488064550   0.111050553632911   1.0000000
B2   B   0.334029952537213   0.379588648070387   0.111046298811184   1.0000000
B2   B   0.334707616319207   0.525705462125490   0.111047996117493   1.0000000
B2   B   0.332477351530994   0.667551916721503   0.111054200470580   1.0000000
B2   B   0.333296860097437   0.809926439347752   0.111048737612578   1.0000000
B2   B   0.476304281463196   0.952580245675096   0.111006764715631   1.0000000
B2   B   0.476224944119894   0.095112132678903   0.111005937535029   1.0000000
B2   B   0.475816511017631   0.237344474174369   0.111031551400684   1.0000000
B2   B   0.476332891511642   0.380379390718938   0.111039210427200   1.0000000
B2   B   0.474248720900960   0.666671541277997   0.111061984776830   1.0000000
B2   B   0.476285416076772   0.809957506266823   0.111043316231139   1.0000000
B2   B   0.619094235300571   0.952298137110582   0.111020460673850   1.0000000
B2   B   0.619102298115994   0.095424939816371   0.111001787043893   1.0000000
B2   B   0.618920408851985   0.238483118359613   0.111011365334552   1.0000000
B2   B   0.617734037212396   0.380861485677403   0.111003952718846   1.0000000
B2   B   0.619593621238113   0.666054439942263   0.111047284632929   1.0000000
B2   B   0.618600932241594   0.808664266034217   0.110999892697904   1.0000000
B2   B   0.761693159244791   0.952163112122308   0.111005605577223   1.0000000
B2   B   0.761863167672947   0.095289255981463   0.111043831060086   1.0000000
B2   B   0.761789905141291   0.238262757874353   0.111046164885750   1.0000000
B2   B   0.761541140553469   0.381121512199305   0.111008165865403   1.0000000
B2   B   0.761650996992182   0.524748277630173   0.111020950697744   1.0000000
B2   B   0.762798130793807   0.665549896167610   0.111037895143438   1.0000000
B2   B   0.761780661196090   0.809461420028468   0.110993645933386   1.0000000
C2   C   0.386026173671716   0.477201113910422   0.111072720746058   1.0000000
C2   C   0.477728543546887   0.525029363879484   0.111150623421060   1.0000000
C2   C   0.523492583405831   0.616424984669739   0.111082742066802   1.0000000
C2   C   0.618674714412505   0.524487006654025   0.111068196589430   1.0000000
N2   N   0.951958507915432   0.904139320767928   0.111001452096011   1.0000000
N2   N   0.952239351295845   0.047422317778984   0.111005929230990   1.0000000
N2   N   0.952267070551811   0.190512915831848   0.111020677846067   1.0000000
N2   N   0.952075888474562   0.333422136880498   0.110996933675049   1.0000000
N2   N   0.951584050107039   0.476218617070053   0.110976228079819   1.0000000
N2   N   0.952206809293795   0.618903280879151   0.111018453846375   1.0000000
N2   N   0.952311683036217   0.761677406151833   0.111025117659120   1.0000000
N2   N   0.095123820235283   0.904625476305301   0.110972843288963   1.0000000
N2   N   0.095078519341819   0.047324073438662   0.111003968423192   1.0000000
N2   N   0.095041724792797   0.190160663663453   0.110982956032430   1.0000000
N2   N   0.095367904013031   0.333409923754909   0.110990616619847   1.0000000
N2   N   0.094711416891446   0.476142840545027   0.111012060912852   1.0000000
N2   N   0.094722371767966   0.618977091622018   0.111012519769207   1.0000000
N2   N   0.095068220562637   0.761859112961137   0.110983104106732   1.0000000
N2   N   0.238051997393018   0.904797032377238   0.110983089305181   1.0000000
N2   N   0.238091015108696   0.047389064000683   0.111030566053768   1.0000000
N2   N   0.238380543074856   0.190177291424293   0.111016204599354   1.0000000
N2   N   0.238111824430989   0.332498482532377   0.110989050003570   1.0000000
N2   N   0.238086760031734   0.476519783977530   0.111013359217376   1.0000000
N2   N   0.237197316597221   0.619250754463126   0.111039738608135   1.0000000
N2   N   0.237850231943255   0.762103205743272   0.111023535573556   1.0000000
N2   N   0.381041493205886   0.905193806816827   0.111008947369223   1.0000000
N2   N   0.381110713563044   0.047552455557411   0.111018716550939   1.0000000
N2   N   0.381219428027947   0.189746031235512   0.111046787536977   1.0000000
N2   N   0.382414826505986   0.332097434403196   0.111018543831216   1.0000000
N2   N   0.379564355920062   0.620756742337763   0.111031677534187   1.0000000
N2   N   0.380806412998051   0.762878670360397   0.111033876325814   1.0000000
N2   N   0.523997801757977   0.905379745068654   0.111008559508486   1.0000000
N2   N   0.523979995805588   0.047996184712554   0.110973555598985   1.0000000
N2   N   0.523972084010232   0.190741516336610   0.111002341426908   1.0000000
N2   N   0.523959435326343   0.333521163764218   0.110996443943728   1.0000000
N2   N   0.528374387975687   0.479304556048283   0.111080052946737   1.0000000
N2   N   0.523749589694071   0.762685869334816   0.111016494225171   1.0000000
N2   N   0.666700910904658   0.904530136054594   0.110992756754142   1.0000000
N2   N   0.666714619337288   0.047878048617025   0.111003861250733   1.0000000
N2   N   0.666573828208208   0.191088696695345   0.111003447249734   1.0000000
N2   N   0.666282303990675   0.334636537787137   0.110987510966441   1.0000000
N2   N   0.663847859125283   0.478359212530978   0.111010119588873   1.0000000
N2   N   0.665833027907737   0.614085144618006   0.111033134166180   1.0000000
N2   N   0.667705524381986   0.761568525490562   0.110977898847420   1.0000000
N2   N   0.809636997259939   0.904569165694134   0.110983432459231   1.0000000
N2   N   0.809431427461008   0.047592419612690   0.111020195502961   1.0000000
N2   N   0.809340902923699   0.190699342972294   0.111036552571164   1.0000000
N2   N   0.809029939877641   0.333710815731231   0.111006500029483   1.0000000
N2   N   0.808012535308600   0.476409671594723   0.110985895670430   1.0000000
N2   N   0.809963140582512   0.618779369760389   0.111033361325431   1.0000000
N2   N   0.808607720000226   0.760250450154338   0.110999129118319   1.0000000


