data_1
_audit_creation_method   'vasp2cif'
_cell_length_a    14.93631414619966
_cell_length_b    14.936314146199727
_cell_length_c    13.341276283792837
_cell_angle_alpha    90.0
_cell_angle_beta    90.0
_cell_angle_gamma    119.99999999999984

_symmetry_space_group_name_H-M    'P 1'
loop_
_atom_site_label
_atom_site_type_symbol
_atom_site_fract_x
_atom_site_fract_y
_atom_site_fract_z
_atom_site_occupancy
N2   N   0.444444444444443   0.388888888888886   0.375000000000000   1.0000000
N2   N   0.111117553139693   0.055550073371400   0.125151171512261   1.0000000
N2   N   0.611103325395428   0.555548579184215   0.125370282444411   1.0000000
N2   N   0.444432520231706   0.055550073371400   0.125151171512261   1.0000000
N2   N   0.944451736297786   0.555563058772003   0.125108436819947   1.0000000
N2   N   0.777777777777779   0.055555555555557   0.125103921561897   1.0000000
N2   N   0.111111111111114   0.722222222222221   0.624903996317274   1.0000000
N2   N   0.444432520231706   0.722215780193642   0.624848828487739   1.0000000
N2   N   0.277784754149120   0.222230007937909   0.624629717555589   1.0000000
N2   N   0.777783259961936   0.722215780193642   0.624848828487739   1.0000000
N2   N   0.611108853815757   0.222224479517579   0.624833899937486   1.0000000
N2   N   0.944452436719924   0.222233123638023   0.624885161220188   1.0000000
N2   N   0.277770274561333   0.722222010859118   0.125108436819947   1.0000000
N2   N   0.111115625701830   0.222224479517579   0.125166100062514   1.0000000
N2   N   0.444445253788788   0.222230007937909   0.125370282444411   1.0000000
N2   N   0.611108853815757   0.722217707631506   0.125166100062514   1.0000000
N2   N   0.944451736297786   0.722222010859118   0.125108436819947   1.0000000
N2   N   0.777780686918099   0.222233123638023   0.125114838779812   1.0000000
N2   N   0.111111322474218   0.888881597035543   0.624891563180052   1.0000000
N2   N   0.444430641627957   0.888881987480643   0.624889259248143   1.0000000
N2   N   0.277784754149120   0.388888079544541   0.624629717555589   1.0000000
N2   N   0.611103325395428   0.388888079544541   0.624629717555589   1.0000000
N2   N   0.777780686918099   0.888880896613405   0.624885161220188   1.0000000
N2   N   0.944451345852686   0.388902691705372   0.624889259248143   1.0000000
N2   N   0.111117553139693   0.388900813101622   0.125151171512261   1.0000000
N2   N   0.277770274561333   0.888881597035543   0.125108436819947   1.0000000
N2   N   0.611100209695313   0.888880896613405   0.125114838779812   1.0000000
N2   N   0.444444444444443   0.388888888888886   0.125571774602049   1.0000000
N2   N   0.944451345852686   0.888881987480643   0.125110740751857   1.0000000
N2   N   0.777783259961936   0.388900813101622   0.125151171512261   1.0000000
N2   N   0.277774284475470   0.555559048857866   0.624825855672461   1.0000000
N2   N   0.111117553139693   0.055550073371400   0.624848828487739   1.0000000
N2   N   0.611103325395428   0.555548579184215   0.624629717555589   1.0000000
N2   N   0.444432520231706   0.055550073371400   0.624848828487739   1.0000000
N2   N   0.944451736297786   0.555563058772003   0.624891563180052   1.0000000
N2   N   0.111111322474218   0.555563058772003   0.125108436819947   1.0000000
N2   N   0.777777777777779   0.055555555555557   0.624896078438104   1.0000000
N2   N   0.277774284475470   0.055548568950940   0.125174144327539   1.0000000
N2   N   0.444445253788788   0.555548579184215   0.125370282444411   1.0000000
N2   N   0.777784764382396   0.555559048857866   0.125174144327539   1.0000000
N2   N   0.611100209695313   0.055552646415237   0.125114838779812   1.0000000
N2   N   0.444445253788788   0.555548579184215   0.624629717555589   1.0000000
N2   N   0.944452436719924   0.055552646415237   0.125114838779812   1.0000000
N2   N   0.277770274561333   0.722222010859118   0.624891563180052   1.0000000
N2   N   0.111115625701830   0.222224479517579   0.624833899937486   1.0000000
N2   N   0.444445253788788   0.222230007937909   0.624629717555589   1.0000000
N2   N   0.611108853815757   0.722217707631506   0.624833899937486   1.0000000
N2   N   0.944451736297786   0.722222010859118   0.624891563180052   1.0000000
N2   N   0.777780686918099   0.222233123638023   0.624885161220188   1.0000000
N2   N   0.111111111111114   0.722222222222221   0.125096003682726   1.0000000
N2   N   0.444432520231706   0.722215780193642   0.125151171512261   1.0000000
N2   N   0.277784754149120   0.222230007937909   0.125370282444411   1.0000000
N2   N   0.777783259961936   0.722215780193642   0.125151171512261   1.0000000
N2   N   0.611108853815757   0.222224479517579   0.125166100062514   1.0000000
N2   N   0.944452436719924   0.222233123638023   0.125114838779812   1.0000000
N2   N   0.111117553139693   0.388900813101622   0.624848828487739   1.0000000
N2   N   0.277770274561333   0.888881597035543   0.624891563180052   1.0000000
N2   N   0.611100209695313   0.888880896613405   0.624885161220188   1.0000000
N2   N   0.444444444444443   0.388888888888886   0.624428225397951   1.0000000
N2   N   0.944451345852686   0.888881987480643   0.624889259248143   1.0000000
N2   N   0.111111322474218   0.888881597035543   0.125108436819947   1.0000000
N2   N   0.777783259961936   0.388900813101622   0.624848828487739   1.0000000
N2   N   0.444430641627957   0.888881987480643   0.125110740751857   1.0000000
N2   N   0.277784754149120   0.388888079544541   0.125370282444411   1.0000000
N2   N   0.277774284475470   0.555559048857866   0.125174144327539   1.0000000
N2   N   0.611103325395428   0.388888079544541   0.125370282444411   1.0000000
N2   N   0.777780686918099   0.888880896613405   0.125114838779812   1.0000000
N2   N   0.944451345852686   0.388902691705372   0.125110740751857   1.0000000
N2   N   0.111111322474218   0.555563058772003   0.624891563180052   1.0000000
N2   N   0.277774284475470   0.055548568950940   0.624825855672461   1.0000000
N2   N   0.777784764382396   0.555559048857866   0.624825855672461   1.0000000
N2   N   0.611100209695313   0.055552646415237   0.624885161220188   1.0000000
N2   N   0.944452436719924   0.055552646415237   0.624885161220188   1.0000000
N2   N   0.055732135258432   0.111245218303211   0.375000000000000   1.0000000
N2   N   0.555610603277627   0.611221206555254   0.375000000000000   1.0000000
N2   N   0.389262831334739   0.113222678602977   0.375000000000000   1.0000000
N2   N   0.888085069018474   0.610709201175908   0.375000000000000   1.0000000
N2   N   0.722188173541577   0.111145159791759   0.375000000000000   1.0000000
N2   N   0.055553758766429   0.777779574566907   0.875000000000000   1.0000000
N2   N   0.388894296991551   0.777779375247371   0.875000000000000   1.0000000
N2   N   0.222223477104305   0.277778405218821   0.875000000000000   1.0000000
N2   N   0.722221160975459   0.777778513778677   0.875000000000000   1.0000000
N2   N   0.555554928114515   0.277778405218821   0.875000000000000   1.0000000
N2   N   0.888888148856810   0.277776297713628   0.875000000000000   1.0000000
N2   N   0.222390190276483   0.777861761804909   0.375000000000000   1.0000000
N2   N   0.055732135258432   0.277820250288557   0.375000000000000   1.0000000
N2   N   0.391407702910973   0.282815405821953   0.375000000000000   1.0000000
N2   N   0.555513083044779   0.777601198074903   0.375000000000000   1.0000000
N2   N   0.888286936302895   0.777326846122032   0.375000000000000   1.0000000
N2   N   0.722088115030125   0.277820250288557   0.375000000000000   1.0000000
N2   N   0.055553958085965   0.944448255077516   0.875000000000000   1.0000000
N2   N   0.388894296991551   0.944448255077516   0.875000000000000   1.0000000
N2   N   0.222224551556010   0.444439881448639   0.875000000000000   1.0000000
N2   N   0.555551236723153   0.444442285028241   0.875000000000000   1.0000000
N2   N   0.722222170277838   0.944444340555675   0.875000000000000   1.0000000
N2   N   0.888885078255813   0.444439036341778   0.875000000000000   1.0000000
N2   N   0.056006487211303   0.444293423514198   0.375000000000000   1.0000000
N2   N   0.222624132157427   0.945248264314855   0.375000000000000   1.0000000
N2   N   0.555488312509697   0.944410822921513   0.375000000000000   1.0000000
N2   N   0.391407702910973   0.441925630422356   0.375000000000000   1.0000000
N2   N   0.888922510411816   0.944410822921513   0.375000000000000   1.0000000
N2   N   0.720110654730359   0.444070501998590   0.375000000000000   1.0000000
N2   N   0.222225120392008   0.611108212941327   0.875000000000000   1.0000000
N2   N   0.055554819554659   0.111112172357877   0.875000000000000   1.0000000
N2   N   0.555554928114515   0.611109856229030   0.875000000000000   1.0000000
N2   N   0.388893451884690   0.111118003440707   0.875000000000000   1.0000000
N2   N   0.888883092549312   0.611108212941327   0.875000000000000   1.0000000
N2   N   0.055471571528426   0.610943143056853   0.375000000000000   1.0000000
N2   N   0.722222170277838   0.111111163055498   0.875000000000000   1.0000000
N2   N   0.223959847268231   0.113222678602977   0.375000000000000   1.0000000
N2   N   0.389262831334739   0.609373486065105   0.375000000000000   1.0000000
N2   N   0.720110654730359   0.609373486065105   0.375000000000000   1.0000000
N2   N   0.555513083044779   0.111245218303211   0.375000000000000   1.0000000
N2   N   0.388893451884690   0.611108781777326   0.875000000000000   1.0000000
N2   N   0.888956986250175   0.111145159791759   0.375000000000000   1.0000000
N2   N   0.222225815800478   0.777779574566907   0.875000000000000   1.0000000
N2   N   0.055554819554659   0.277775980530117   0.875000000000000   1.0000000
N2   N   0.388891048305088   0.277782096610183   0.875000000000000   1.0000000
N2   N   0.555557352803218   0.777778513778677   0.875000000000000   1.0000000
N2   N   0.888885078255813   0.777779375247371   0.875000000000000   1.0000000
N2   N   0.722221160975459   0.277775980530117   0.875000000000000   1.0000000
N2   N   0.055471571528426   0.777861761804909   0.375000000000000   1.0000000
N2   N   0.389039909819130   0.777326846122032   0.375000000000000   1.0000000
N2   N   0.222112126778081   0.277722730055709   0.375000000000000   1.0000000
N2   N   0.722088115030125   0.777601198074903   0.375000000000000   1.0000000
N2   N   0.555610603277627   0.277722730055709   0.375000000000000   1.0000000
N2   N   0.888922510411816   0.277845020823639   0.375000000000000   1.0000000
N2   N   0.055553958085965   0.444439036341778   0.875000000000000   1.0000000
N2   N   0.222225120392008   0.944450240784017   0.875000000000000   1.0000000
N2   N   0.555557035619708   0.944445184476518   0.875000000000000   1.0000000
N2   N   0.388891048305088   0.444442285028241   0.875000000000000   1.0000000
N2   N   0.888888148856810   0.944445184476518   0.875000000000000   1.0000000
N2   N   0.056006487211303   0.945046397030433   0.375000000000000   1.0000000
N2   N   0.722215329892629   0.444439881448639   0.875000000000000   1.0000000
N2   N   0.389039909819130   0.945046397030433   0.375000000000000   1.0000000
N2   N   0.223959847268231   0.444070501998590   0.375000000000000   1.0000000
N2   N   0.222624132157427   0.610709201175908   0.375000000000000   1.0000000
N2   N   0.550517927511383   0.441925630422356   0.375000000000000   1.0000000
N2   N   0.722188173541577   0.944376347083154   0.375000000000000   1.0000000
N2   N   0.888286936302895   0.444293423514198   0.375000000000000   1.0000000
N2   N   0.055553758766429   0.611107517532858   0.875000000000000   1.0000000
N2   N   0.222224551556010   0.111118003440707   0.875000000000000   1.0000000
N2   N   0.722215329892629   0.611108781777326   0.875000000000000   1.0000000
N2   N   0.555557352803218   0.111112172357877   0.875000000000000   1.0000000
N2   N   0.888888992777653   0.111111163055498   0.875000000000000   1.0000000
B2   B   0.111571184389126   0.056177177503931   0.375000000000000   1.0000000
B2   B   0.609707831849270   0.555858626870486   0.375000000000000   1.0000000
B2   B   0.444605993114804   0.056177177503931   0.375000000000000   1.0000000
B2   B   0.944226656899918   0.555454063032657   0.375000000000000   1.0000000
B2   B   0.777777777777779   0.055555555555557   0.375000000000000   1.0000000
B2   B   0.111111111111114   0.722222222222221   0.875000000000000   1.0000000
B2   B   0.444454573805854   0.722254710004237   0.875000000000000   1.0000000
B2   B   0.277743805944142   0.222193951739711   0.875000000000000   1.0000000
B2   B   0.777800136198384   0.722254710004237   0.875000000000000   1.0000000
B2   B   0.611133975007994   0.222199358325341   0.875000000000000   1.0000000
B2   B   0.944421391414495   0.222208112580463   0.875000000000000   1.0000000
B2   B   0.277879270300678   0.722105927200596   0.375000000000000   1.0000000
B2   B   0.110094967421871   0.221714150377600   0.375000000000000   1.0000000
B2   B   0.446150795021216   0.223625501484066   0.375000000000000   1.0000000
B2   B   0.611619182955736   0.723238365911465   0.375000000000000   1.0000000
B2   B   0.944226656899918   0.722105927200596   0.375000000000000   1.0000000
B2   B   0.777897307331201   0.222159353575806   0.375000000000000   1.0000000
B2   B   0.111100767447320   0.888878053270045   0.875000000000000   1.0000000
B2   B   0.444455062662910   0.888894197998119   0.875000000000000   1.0000000
B2   B   0.277743805944142   0.388883187537759   0.875000000000000   1.0000000
B2   B   0.611139381593624   0.388883187537759   0.875000000000000   1.0000000
B2   B   0.777786721165968   0.888911941918833   0.875000000000000   1.0000000
B2   B   0.944439135335209   0.388878270670419   0.875000000000000   1.0000000
B2   B   0.111571184389126   0.388727340218524   0.375000000000000   1.0000000
B2   B   0.277879270300678   0.889106676433411   0.375000000000000   1.0000000
B2   B   0.611173979757530   0.889071287088725   0.375000000000000   1.0000000
B2   B   0.944440768322583   0.888892565010745   0.375000000000000   1.0000000
B2   B   0.777156155829405   0.388727340218524   0.375000000000000   1.0000000
B2   B   0.277763372961482   0.555569960371854   0.875000000000000   1.0000000
B2   B   0.111078623329098   0.055533197134952   0.875000000000000   1.0000000
B2   B   0.611139381593624   0.555589527389194   0.875000000000000   1.0000000
B2   B   0.444454573805854   0.055533197134952   0.875000000000000   1.0000000
B2   B   0.944455280063283   0.555556047510603   0.875000000000000   1.0000000
B2   B   0.111227406132740   0.555454063032657   0.375000000000000   1.0000000
B2   B   0.777777777777779   0.055555555555557   0.875000000000000   1.0000000
B2   B   0.278058783584261   0.056117567168522   0.375000000000000   1.0000000
B2   B   0.446150795021216   0.555858626870486   0.375000000000000   1.0000000
B2   B   0.777215766164813   0.555274549749075   0.375000000000000   1.0000000
B2   B   0.611173979757530   0.055436026002134   0.375000000000000   1.0000000
B2   B   0.444450145795570   0.555589527389194   0.875000000000000   1.0000000
B2   B   0.944262046244604   0.055436026002134   0.375000000000000   1.0000000
B2   B   0.277777285822732   0.722232565886016   0.875000000000000   1.0000000
B2   B   0.111065383317354   0.222199358325341   0.875000000000000   1.0000000
B2   B   0.444450145795570   0.222193951739711   0.875000000000000   1.0000000
B2   B   0.611133975007994   0.722267950015981   0.875000000000000   1.0000000
B2   B   0.944455280063283   0.722232565886016   0.875000000000000   1.0000000
B2   B   0.777786721165968   0.222208112580463   0.875000000000000   1.0000000
B2   B   0.111111111111114   0.722222222222221   0.375000000000000   1.0000000
B2   B   0.444605993114804   0.721762148944210   0.375000000000000   1.0000000
B2   B   0.277474706462850   0.223625501484066   0.375000000000000   1.0000000
B2   B   0.777156155829405   0.721762148944210   0.375000000000000   1.0000000
B2   B   0.611619182955736   0.221714150377600   0.375000000000000   1.0000000
B2   B   0.944262046244604   0.222159353575806   0.375000000000000   1.0000000
B2   B   0.111078623329098   0.388878759527475   0.875000000000000   1.0000000
B2   B   0.277777285822732   0.888878053270045   0.875000000000000   1.0000000
B2   B   0.611125220752873   0.888911941918833   0.875000000000000   1.0000000
B2   B   0.444444444444443   0.388888888888886   0.875000000000000   1.0000000
B2   B   0.944439135335209   0.888894197998119   0.875000000000000   1.0000000
B2   B   0.111227406132740   0.889106676433411   0.375000000000000   1.0000000
B2   B   0.777800136198384   0.388878759527475   0.875000000000000   1.0000000
B2   B   0.444451796688162   0.888892565010745   0.375000000000000   1.0000000
B2   B   0.277474706462850   0.387182538312112   0.375000000000000   1.0000000
B2   B   0.278058783584261   0.555274549749075   0.375000000000000   1.0000000
B2   B   0.609707831849270   0.387182538312112   0.375000000000000   1.0000000
B2   B   0.777897307331201   0.889071287088725   0.375000000000000   1.0000000
B2   B   0.944440768322583   0.388881536645166   0.375000000000000   1.0000000
B2   B   0.111100767447320   0.555556047510603   0.875000000000000   1.0000000
B2   B   0.277763372961482   0.055526745922963   0.875000000000000   1.0000000
B2   B   0.777806587410372   0.555569960371854   0.875000000000000   1.0000000
B2   B   0.611125220752873   0.055546612167368   0.875000000000000   1.0000000
B2   B   0.944421391414495   0.055546612167368   0.875000000000000   1.0000000
B2   B   0.055486841960102   0.111043247087432   0.124861993004762   1.0000000
B2   B   0.555616920435654   0.611233840871309   0.124752653881396   1.0000000
B2   B   0.388835730025476   0.110964345552682   0.124834026321470   1.0000000
B2   B   0.888993789706738   0.611163561520040   0.124886394506997   1.0000000
B2   B   0.722231592302273   0.111101741031062   0.124905763754118   1.0000000
B2   B   0.055571862455624   0.777761470877711   0.625086217655576   1.0000000
B2   B   0.388845571217066   0.777803949565136   0.625104490851750   1.0000000
B2   B   0.222099492462027   0.277716412897681   0.625247346118603   1.0000000
B2   B   0.722290086245904   0.777846491373234   0.625138006995238   1.0000000
B2   B   0.555616920435654   0.277716412897681   0.625247346118603   1.0000000
B2   B   0.888897575128300   0.277795150256607   0.625096568072855   1.0000000
B2   B   0.222189608422087   0.777761470877711   0.124913782344424   1.0000000
B2   B   0.055486841960102   0.277776928206005   0.124861993004762   1.0000000
B2   B   0.388845288420567   0.277690576841141   0.124643167630396   1.0000000
B2   B   0.555556405127330   0.777846491373234   0.124861993004762   1.0000000
B2   B   0.888958378348064   0.777803949565136   0.124895509148250   1.0000000
B2   B   0.722290086245904   0.277776928206005   0.124861993004762   1.0000000
B2   B   0.055529383768199   0.944374954985265   0.625104490851750   1.0000000
B2   B   0.388845571217066   0.944374954985265   0.625104490851750   1.0000000
B2   B   0.222128615527199   0.444497603307853   0.625165973678529   1.0000000
B2   B   0.555642756492195   0.444488044912762   0.625356832369604   1.0000000
B2   B   0.722231592302273   0.944463184604547   0.625094236245882   1.0000000
B2   B   0.888958378348064   0.444487762116263   0.625104490851750   1.0000000
B2   B   0.055529383768199   0.444487762116263   0.124895509148250   1.0000000
B2   B   0.222169771813295   0.944339543626591   0.124886394506997   1.0000000
B2   B   0.555538183076729   0.944435758205029   0.124903431927145   1.0000000
B2   B   0.388845288420567   0.444488044912762   0.124643167630396   1.0000000
B2   B   0.888897575128300   0.944435758205029   0.124903431927145   1.0000000
B2   B   0.722368987780654   0.444497603307853   0.124834026321470   1.0000000
B2   B   0.222169771813295   0.611163561520040   0.625113605493003   1.0000000
B2   B   0.055486841960102   0.111043247087432   0.625138006995238   1.0000000
B2   B   0.555616920435654   0.611233840871309   0.625247346118603   1.0000000
B2   B   0.388835730025476   0.110964345552682   0.625165973678529   1.0000000
B2   B   0.888993789706738   0.611163561520040   0.625113605493003   1.0000000
B2   B   0.055571862455624   0.611143724911248   0.124913782344424   1.0000000
B2   B   0.722231592302273   0.111101741031062   0.625094236245882   1.0000000
B2   B   0.222128615527199   0.110964345552682   0.124834026321470   1.0000000
B2   B   0.388835730025476   0.611204717806137   0.124834026321470   1.0000000
B2   B   0.722368987780654   0.611204717806137   0.124834026321470   1.0000000
B2   B   0.555556405127330   0.111043247087432   0.124861993004762   1.0000000
B2   B   0.388835730025476   0.611204717806137   0.625165973678529   1.0000000
B2   B   0.888870148728782   0.111101741031062   0.124905763754118   1.0000000
B2   B   0.222189608422087   0.777761470877711   0.625086217655576   1.0000000
B2   B   0.055486841960102   0.277776928206005   0.625138006995238   1.0000000
B2   B   0.388845288420567   0.277690576841141   0.625356832369604   1.0000000
B2   B   0.555556405127330   0.777846491373234   0.625138006995238   1.0000000
B2   B   0.888958378348064   0.777803949565136   0.625104490851750   1.0000000
B2   B   0.722290086245904   0.277776928206005   0.625138006995238   1.0000000
B2   B   0.055571862455624   0.777761470877711   0.124913782344424   1.0000000
B2   B   0.388845571217066   0.777803949565136   0.124895509148250   1.0000000
B2   B   0.222099492462027   0.277716412897681   0.124752653881396   1.0000000
B2   B   0.722290086245904   0.777846491373234   0.124861993004762   1.0000000
B2   B   0.555616920435654   0.277716412897681   0.124752653881396   1.0000000
B2   B   0.888897575128300   0.277795150256607   0.124903431927145   1.0000000
B2   B   0.055529383768199   0.444487762116263   0.625104490851750   1.0000000
B2   B   0.222169771813295   0.944339543626591   0.625113605493003   1.0000000
B2   B   0.555538183076729   0.944435758205029   0.625096568072855   1.0000000
B2   B   0.388845288420567   0.444488044912762   0.625356832369604   1.0000000
B2   B   0.888897575128300   0.944435758205029   0.625096568072855   1.0000000
B2   B   0.055529383768199   0.944374954985265   0.124895509148250   1.0000000
B2   B   0.722368987780654   0.444497603307853   0.625165973678529   1.0000000
B2   B   0.388845571217066   0.944374954985265   0.124895509148250   1.0000000
B2   B   0.222128615527199   0.444497603307853   0.124834026321470   1.0000000
B2   B   0.222169771813295   0.611163561520040   0.124886394506997   1.0000000
B2   B   0.555642756492195   0.444488044912762   0.124643167630396   1.0000000
B2   B   0.722231592302273   0.944463184604547   0.124905763754118   1.0000000
B2   B   0.888958378348064   0.444487762116263   0.124895509148250   1.0000000
B2   B   0.055571862455624   0.611143724911248   0.625086217655576   1.0000000
B2   B   0.222128615527199   0.110964345552682   0.625165973678529   1.0000000
B2   B   0.722368987780654   0.611204717806137   0.625165973678529   1.0000000
B2   B   0.555556405127330   0.111043247087432   0.625138006995238   1.0000000
B2   B   0.888870148728782   0.111101741031062   0.625094236245882   1.0000000


