data_1
_audit_creation_method   'vasp2cif'
_cell_length_a    17.52789999999977
_cell_length_b    17.52789999999977
_cell_length_c    15.0
_cell_angle_alpha    90.0
_cell_angle_beta    90.0
_cell_angle_gamma    119.99999999999916

_symmetry_space_group_name_H-M    'P 1'
loop_
_atom_site_label
_atom_site_type_symbol
_atom_site_fract_x
_atom_site_fract_y
_atom_site_fract_z
_atom_site_occupancy
P2   P   0.398855224887160   0.482701121767985   0.110533234888185   1.0000000
B2   B   0.907744023240923   0.952713990582330   0.110592433464147   1.0000000
B2   B   0.908944791412386   0.096266368044681   0.110746310543911   1.0000000
B2   B   0.909137379523601   0.238902066169042   0.110814596370042   1.0000000
B2   B   0.908297743537117   0.381061543091685   0.110685699621590   1.0000000
B2   B   0.905419188456933   0.522716119839242   0.110603310491213   1.0000000
B2   B   0.902403613204444   0.664186121533689   0.110541540379798   1.0000000
B2   B   0.903362844963395   0.806682847938721   0.110538978471010   1.0000000
B2   B   0.048489371715741   0.950814382114375   0.110599535941940   1.0000000
B2   B   0.050664649384685   0.094796355695935   0.110758294421796   1.0000000
B2   B   0.052230302655283   0.238881238800580   0.110957595758096   1.0000000
B2   B   0.051875136006750   0.381637877231328   0.110882430954051   1.0000000
B2   B   0.049394748416800   0.523959669206755   0.110679419242249   1.0000000
B2   B   0.047359902541260   0.665810070288288   0.110613499685617   1.0000000
B2   B   0.047120091967927   0.807827529589610   0.110564502426946   1.0000000
B2   B   0.191325087948672   0.951022462525514   0.110690964046915   1.0000000
B2   B   0.192892196972489   0.093916869498971   0.110767775479444   1.0000000
B2   B   0.193583449494264   0.236367946108876   0.110914417805056   1.0000000
B2   B   0.196183828065884   0.382177443215883   0.110901907005188   1.0000000
B2   B   0.192615922409413   0.525320395600578   0.110765819401681   1.0000000
B2   B   0.191344979768532   0.667464676932701   0.110749095721129   1.0000000
B2   B   0.190927982770063   0.809133908270582   0.110694506892444   1.0000000
B2   B   0.334934878837573   0.952153704121917   0.110850754497936   1.0000000
B2   B   0.335536031454400   0.092892496716792   0.110846249350596   1.0000000
B2   B   0.338153992868734   0.234253344306217   0.110928716635964   1.0000000
B2   B   0.336330104922123   0.368251064650593   0.110971889458773   1.0000000
B2   B   0.335458257436211   0.534646360230244   0.110820033419514   1.0000000
B2   B   0.335201893030862   0.672236776186880   0.110821035524924   1.0000000
B2   B   0.334888434547360   0.811742451165291   0.110870495589360   1.0000000
B2   B   0.478941920236633   0.953817338280552   0.110890291655455   1.0000000
B2   B   0.479200134643041   0.094974052483205   0.110951178600634   1.0000000
B2   B   0.480031084410200   0.236702683195099   0.110849684159771   1.0000000
B2   B   0.487926245952749   0.383793612101788   0.110922684904222   1.0000000
B2   B   0.479411721159354   0.672331937766207   0.110723301662691   1.0000000
B2   B   0.479196161858228   0.812983787266020   0.110843121256456   1.0000000
B2   B   0.622771135540252   0.954865650059777   0.110715197172396   1.0000000
B2   B   0.622751247774335   0.096080690604724   0.110770459954387   1.0000000
B2   B   0.622948795816722   0.237664959306475   0.110785302083526   1.0000000
B2   B   0.624473753284056   0.381200868561852   0.110682378222133   1.0000000
B2   B   0.573698620364446   0.514686323276002   0.110775646639201   1.0000000
B2   B   0.625599856598088   0.674425425145616   0.110672511893613   1.0000000
B2   B   0.623136927827295   0.813846596056900   0.110699160242330   1.0000000
B2   B   0.765961025907652   0.954309308051790   0.110615067296191   1.0000000
B2   B   0.766102552024255   0.096555165805419   0.110665435451659   1.0000000
B2   B   0.765977047087198   0.238500855983845   0.110681798721730   1.0000000
B2   B   0.765143036301755   0.380347545418365   0.110630192813886   1.0000000
B2   B   0.758532271108226   0.519640052730225   0.110628384158021   1.0000000
B2   B   0.755411184739500   0.659891004018826   0.110640640510822   1.0000000
B2   B   0.765447627560782   0.811340449967876   0.110620987123599   1.0000000
N2   N   0.953152161700275   0.903156874072457   0.110566847679204   1.0000000
N2   N   0.955780848102970   0.047966962123467   0.110655174783225   1.0000000
N2   N   0.956925409137041   0.191431722837430   0.110863689055726   1.0000000
N2   N   0.956727214535585   0.333874670396813   0.110817422385105   1.0000000
N2   N   0.954750891892084   0.476070733928124   0.110612345204015   1.0000000
N2   N   0.952442692433772   0.618165724261558   0.110545055331561   1.0000000
N2   N   0.951859066256146   0.760096316998791   0.110488477105148   1.0000000
N2   N   0.095928627997156   0.903271590223629   0.110581682474465   1.0000000
N2   N   0.097320653331369   0.046383346745939   0.110662441904300   1.0000000
N2   N   0.098537899837005   0.189861721026697   0.110890113947919   1.0000000
N2   N   0.100262263927872   0.334333112188937   0.110953891385574   1.0000000
N2   N   0.097801841740456   0.476917594395773   0.110747731668082   1.0000000
N2   N   0.096245242103767   0.619216274079100   0.110668126406931   1.0000000
N2   N   0.095618591450611   0.761161147589320   0.110598279132782   1.0000000
N2   N   0.239359408369817   0.904150923006065   0.110723243105485   1.0000000
N2   N   0.239920623242756   0.045906819201590   0.110723086351170   1.0000000
N2   N   0.241632969151871   0.188859860749859   0.110873379057627   1.0000000
N2   N   0.241385413001572   0.331109929107173   0.110931768099015   1.0000000
N2   N   0.240770247671121   0.478374248930821   0.110790036982191   1.0000000
N2   N   0.239739574504543   0.621087023588394   0.110744245103750   1.0000000
N2   N   0.239371430183399   0.762733369450195   0.110774144140044   1.0000000
N2   N   0.383339449744086   0.906132899346045   0.110897190173629   1.0000000
N2   N   0.383481953397329   0.046421672914445   0.110905609784015   1.0000000
N2   N   0.384322492028716   0.186741888234189   0.110855883991345   1.0000000
N2   N   0.388834435242068   0.327987179771689   0.110999481597115   1.0000000
N2   N   0.384052801012525   0.628176182963967   0.110808186776607   1.0000000
N2   N   0.383612394397412   0.766419816342652   0.110849365935131   1.0000000
N2   N   0.527341348590180   0.907504438824114   0.110807096480152   1.0000000
N2   N   0.527269530649392   0.048210512053474   0.110875293398063   1.0000000
N2   N   0.527407129968806   0.189095400835918   0.110906807500749   1.0000000
N2   N   0.528067145381912   0.330569765149378   0.110747957735378   1.0000000
N2   N   0.506993579718744   0.541939415058714   0.110568678299074   1.0000000
N2   N   0.532148391976719   0.631191352803332   0.110510435118296   1.0000000
N2   N   0.527843026204188   0.766968804463413   0.110753148564519   1.0000000
N2   N   0.670877248650096   0.908350762977745   0.110637998982235   1.0000000
N2   N   0.670848882526702   0.049331471773283   0.110669127967092   1.0000000
N2   N   0.670810477851360   0.190356985203813   0.110722492562716   1.0000000
N2   N   0.670709328944529   0.331317750951661   0.110650152655324   1.0000000
N2   N   0.666786749987820   0.472293387051629   0.110614486201700   1.0000000
N2   N   0.658717959960740   0.614952288808222   0.110747651412257   1.0000000
N2   N   0.671729854569375   0.768228166567005   0.110670600644250   1.0000000
N2   N   0.813289323202631   0.906574463230812   0.110562994045330   1.0000000
N2   N   0.813866956455675   0.049267392764775   0.110638360451383   1.0000000
N2   N   0.814017653929341   0.191292552472517   0.110676519271957   1.0000000
N2   N   0.813637259052035   0.333067512473542   0.110634462640291   1.0000000
N2   N   0.811442997637677   0.474933828068312   0.110610966158479   1.0000000
N2   N   0.807522131336299   0.616594461140585   0.110580318276348   1.0000000
N2   N   0.807809006287677   0.758856174457204   0.110567214268823   1.0000000


