data_1
_audit_creation_method   'vasp2cif'
_cell_length_a    17.52789999999977
_cell_length_b    17.52789999999977
_cell_length_c    15.0
_cell_angle_alpha    90.0
_cell_angle_beta    90.0
_cell_angle_gamma    119.99999999999916

_symmetry_space_group_name_H-M    'P 1'
loop_
_atom_site_label
_atom_site_type_symbol
_atom_site_fract_x
_atom_site_fract_y
_atom_site_fract_z
_atom_site_occupancy
B2   B   0.905056221750981   0.953216761076753   0.097439552533567   1.0000000
B2   B   0.904237146696258   0.095762958212286   0.099245068033235   1.0000000
B2   B   0.903965209903357   0.238587443291439   0.103814721757361   1.0000000
B2   B   0.904017035186398   0.381413158661238   0.108057848959306   1.0000000
B2   B   0.904771468430727   0.524294757609589   0.109561339303954   1.0000000
B2   B   0.905735029210845   0.667355196653517   0.106117111671130   1.0000000
B2   B   0.905950458008391   0.810652117463538   0.100205861293763   1.0000000
B2   B   0.047650387796002   0.952348935756023   0.098889876350632   1.0000000
B2   B   0.046786685348896   0.094943643830739   0.097432327340545   1.0000000
B2   B   0.046563592269951   0.238099285440720   0.100710962249557   1.0000000
B2   B   0.046806979058109   0.381085688428691   0.106144797183991   1.0000000
B2   B   0.047650123036016   0.523892032282766   0.108456532789852   1.0000000
B2   B   0.048224582767512   0.666736154147090   0.107113098203224   1.0000000
B2   B   0.048161111111112   0.809613592086870   0.103127407164293   1.0000000
B2   B   0.190387518729292   0.951840347029346   0.103206487781860   1.0000000
B2   B   0.189351387559493   0.094048241503358   0.100296546087495   1.0000000
B2   B   0.188315601344791   0.236628337107824   0.100987173942744   1.0000000
B2   B   0.189040368110133   0.380384313291439   0.109186495212488   1.0000000
B2   B   0.190610500282441   0.523360884232747   0.113878560432690   1.0000000
B2   B   0.191190139421375   0.666262611737991   0.111593843425455   1.0000000
B2   B   0.190861124699616   0.809138926736527   0.106970276391173   1.0000000
B2   B   0.333265043985009   0.951778918345888   0.107281380608227   1.0000000
B2   B   0.332651308965582   0.094267101922573   0.106293816585926   1.0000000
B2   B   0.330507630945600   0.235186822173761   0.107590019498716   1.0000000
B2   B   0.328165072360942   0.377642785059089   0.120683742262450   1.0000000
B2   B   0.333151671922564   0.521453915589989   0.130860438800563   1.0000000
B2   B   0.334449970798236   0.665544242657581   0.122072206527935   1.0000000
B2   B   0.333739449762762   0.808815573003007   0.111697849585529   1.0000000
B2   B   0.476110723693574   0.952358659284958   0.108693438790589   1.0000000
B2   B   0.475709919973171   0.095228795490321   0.109826455579293   1.0000000
B2   B   0.474832771692600   0.237561332435666   0.116270628902126   1.0000000
B2   B   0.468328807626696   0.373565796976743   0.133924997699751   1.0000000
B2   B   0.478540652772565   0.666845667319713   0.130913855533944   1.0000000
B2   B   0.476634713881926   0.809390762647019   0.114054539496550   1.0000000
B2   B   0.618913029858053   0.953194240132681   0.106360014237202   1.0000000
B2   B   0.618592312687692   0.095988045005634   0.108280680333160   1.0000000
B2   B   0.618218437296984   0.238920788481017   0.114803145296626   1.0000000
B2   B   0.617871514197944   0.382137369300505   0.125728742219553   1.0000000
B2   B   0.626443252158369   0.531676919676385   0.133898506612032   1.0000000
B2   B   0.622353905834917   0.671834981720457   0.120692275482260   1.0000000
B2   B   0.619613398627138   0.810966429031547   0.109321200913331   1.0000000
B2   B   0.761895623514630   0.953436177123910   0.100837839376122   1.0000000
B2   B   0.761414860432202   0.096034799531788   0.103930972757271   1.0000000
B2   B   0.761147328284541   0.238858331519519   0.108871360940486   1.0000000
B2   B   0.761085840326374   0.381788007160188   0.114655044468399   1.0000000
B2   B   0.762437847647458   0.525172237320121   0.116092131874848   1.0000000
B2   B   0.764811211091985   0.669496438852887   0.107495956125960   1.0000000
B2   B   0.763365681231053   0.811687837994075   0.100995748167089   1.0000000
N2   N   0.952771319840126   0.905478792264171   0.097943806082398   1.0000000
N2   N   0.951925491474212   0.048074439609542   0.097232404436086   1.0000000
N2   N   0.951464114367048   0.190847408434780   0.100645734855771   1.0000000
N2   N   0.951490180680491   0.333737131967707   0.105601684973765   1.0000000
N2   N   0.952135797483547   0.476567503926654   0.108358669427024   1.0000000
N2   N   0.952846396198993   0.619409610917830   0.107495003708136   1.0000000
N2   N   0.953025465619717   0.762406749767896   0.102764412340129   1.0000000
N2   N   0.095327772863730   0.904675499777163   0.101367500399756   1.0000000
N2   N   0.094523707756770   0.047225916885008   0.097978204247195   1.0000000
N2   N   0.093633137336230   0.189800098345430   0.098243233925387   1.0000000
N2   N   0.093947443381976   0.333160306204273   0.104381491148155   1.0000000
N2   N   0.095110698876387   0.476215110693580   0.108701605991017   1.0000000
N2   N   0.095735765601160   0.619045499833020   0.108732397850843   1.0000000
N2   N   0.095656573770919   0.761863647518138   0.105667249187553   1.0000000
N2   N   0.238137539113833   0.904345752413469   0.105759809521608   1.0000000
N2   N   0.237595862254577   0.046972933041215   0.102896899945252   1.0000000
N2   N   0.236141942462429   0.188853392721570   0.101108453834126   1.0000000
N2   N   0.234691804663626   0.330980468758797   0.106490909417902   1.0000000
N2   N   0.237677569264842   0.475389529104135   0.116836095824901   1.0000000
N2   N   0.238808622028377   0.618621983906448   0.116523289464459   1.0000000
N2   N   0.238494102272345   0.761510724863574   0.110090470065736   1.0000000
N2   N   0.380957516593930   0.904271935988144   0.108919313247376   1.0000000
N2   N   0.380593993572408   0.047153473128771   0.107708928452558   1.0000000
N2   N   0.379896460918152   0.189560122949702   0.109248862108824   1.0000000
N2   N   0.376647989502998   0.329733237092946   0.116865330435914   1.0000000
N2   N   0.373869759476647   0.468473331526388   0.140311982735242   1.0000000
N2   N   0.382066779347209   0.617926308281098   0.132432014698940   1.0000000
N2   N   0.381374198204929   0.761193344868924   0.116635809619123   1.0000000
N2   N   0.523784762623378   0.904894746764006   0.108936680933573   1.0000000
N2   N   0.523438802479570   0.047866328626608   0.108628006749983   1.0000000
N2   N   0.522993077633424   0.190789484889383   0.113670991200098   1.0000000
N2   N   0.521813840049127   0.333444310526443   0.127044369656788   1.0000000
N2   N   0.531524366800214   0.626124933269491   0.140322933487097   1.0000000
N2   N   0.524609853016436   0.762328543803566   0.116976716182451   1.0000000
N2   N   0.666838490092935   0.906058440048396   0.104559122326795   1.0000000
N2   N   0.666266519746150   0.048511715160246   0.105804775518038   1.0000000
N2   N   0.665886404957707   0.191435267547215   0.110483957851647   1.0000000
N2   N   0.665395902487383   0.334616615681244   0.119006030311358   1.0000000
N2   N   0.666565034385722   0.478196310660775   0.126972849412829   1.0000000
N2   N   0.670265875696294   0.623356310870863   0.116826529614414   1.0000000
N2   N   0.669016010909697   0.765313439815254   0.106543690753924   1.0000000
N2   N   0.810194796861930   0.906369703758769   0.098294850580878   1.0000000
N2   N   0.809150888169470   0.048533829830808   0.100767252133629   1.0000000
N2   N   0.808749772416006   0.191251339181275   0.105354689270306   1.0000000
N2   N   0.808569677615436   0.334121387813259   0.110339844308343   1.0000000
N2   N   0.809207348810737   0.477012093831156   0.113388170726277   1.0000000
N2   N   0.810434411608857   0.620108186603638   0.109093869842947   1.0000000
N2   N   0.811140099986304   0.763862078353530   0.101027457642111   1.0000000
Sb2   Sb   0.494294773555332   0.505705279388174   0.203396920441072   1.0000000


