data_1
_audit_creation_method   'vasp2cif'
_cell_length_a    14.93631414619966
_cell_length_b    14.936314146199727
_cell_length_c    13.341276283792837
_cell_angle_alpha    90.0
_cell_angle_beta    90.0
_cell_angle_gamma    119.99999999999984

_symmetry_space_group_name_H-M    'P 1'
loop_
_atom_site_label
_atom_site_type_symbol
_atom_site_fract_x
_atom_site_fract_y
_atom_site_fract_z
_atom_site_occupancy
S2   S   0.444444444444443   0.388888888888886   0.375000000000000   1.0000000
N2   N   0.111116390781903   0.055582578034440   0.125145073781448   1.0000000
N2   N   0.611064277595171   0.555531215711063   0.124456284519032   1.0000000
N2   N   0.444466187252537   0.055582578034440   0.125145073781448   1.0000000
N2   N   0.944424983658649   0.555539928830707   0.124915409641451   1.0000000
N2   N   0.777777777777779   0.055555555555557   0.124778582567769   1.0000000
N2   N   0.111111111111114   0.722222222222221   0.625160305797548   1.0000000
N2   N   0.444466187252537   0.722216942551431   0.624854926218553   1.0000000
N2   N   0.277802117622273   0.222269055738164   0.625543715480968   1.0000000
N2   N   0.777750755298894   0.722216942551431   0.624854926218553   1.0000000
N2   N   0.611118043109115   0.222215290224221   0.624865549053225   1.0000000
N2   N   0.944430595094847   0.222209603392597   0.625155967791333   1.0000000
N2   N   0.277793404502629   0.722218388161278   0.124915409641451   1.0000000
N2   N   0.111097247115113   0.222215290224221   0.125134450946776   1.0000000
N2   N   0.444466938115891   0.222269055738164   0.124456284519032   1.0000000
N2   N   0.611118043109115   0.722236086218222   0.125134450946776   1.0000000
N2   N   0.944424983658649   0.722218388161278   0.124915409641451   1.0000000
N2   N   0.777779008297750   0.222209603392597   0.124844032208667   1.0000000
N2   N   0.111114945172057   0.888908349674680   0.625084590358549   1.0000000
N2   N   0.444462858974660   0.888898096153994   0.625145571098818   1.0000000
N2   N   0.277802117622273   0.388866395217437   0.625543715480968   1.0000000
N2   N   0.611064277595171   0.388866395217437   0.625543715480968   1.0000000
N2   N   0.777779008297750   0.888902738238482   0.625155967791333   1.0000000
N2   N   0.944435237179335   0.388870474358669   0.625145571098818   1.0000000
N2   N   0.111116390781903   0.388867146080792   0.125145073781448   1.0000000
N2   N   0.277793404502629   0.888908349674680   0.124915409641451   1.0000000
N2   N   0.611123729940737   0.888902738238482   0.124844032208667   1.0000000
N2   N   0.444444444444443   0.388888888888886   0.118287166825867   1.0000000
N2   N   0.944435237179335   0.888898096153994   0.124854428901181   1.0000000
N2   N   0.777750755298894   0.388867146080792   0.125145073781448   1.0000000
N2   N   0.277796923516665   0.555536409816669   0.624809216587685   1.0000000
N2   N   0.111116390781903   0.055582578034440   0.624854926218553   1.0000000
N2   N   0.611064277595171   0.555531215711063   0.625543715480968   1.0000000
N2   N   0.444466187252537   0.055582578034440   0.624854926218553   1.0000000
N2   N   0.944424983658649   0.555539928830707   0.625084590358549   1.0000000
N2   N   0.111114945172057   0.555539928830707   0.124915409641451   1.0000000
N2   N   0.777777777777779   0.055555555555557   0.625221417432231   1.0000000
N2   N   0.277796923516665   0.055593847033328   0.125190783412314   1.0000000
N2   N   0.444466938115891   0.555531215711063   0.124456284519032   1.0000000
N2   N   0.777739486300007   0.555536409816669   0.125190783412314   1.0000000
N2   N   0.611123729940737   0.055554325035585   0.124844032208667   1.0000000
N2   N   0.444466938115891   0.555531215711063   0.625543715480968   1.0000000
N2   N   0.944430595094847   0.055554325035585   0.124844032208667   1.0000000
N2   N   0.277793404502629   0.722218388161278   0.625084590358549   1.0000000
N2   N   0.111097247115113   0.222215290224221   0.624865549053225   1.0000000
N2   N   0.444466938115891   0.222269055738164   0.625543715480968   1.0000000
N2   N   0.611118043109115   0.722236086218222   0.624865549053225   1.0000000
N2   N   0.944424983658649   0.722218388161278   0.625084590358549   1.0000000
N2   N   0.777779008297750   0.222209603392597   0.625155967791333   1.0000000
N2   N   0.111111111111114   0.722222222222221   0.124839694202452   1.0000000
N2   N   0.444466187252537   0.722216942551431   0.125145073781448   1.0000000
N2   N   0.277802117622273   0.222269055738164   0.124456284519032   1.0000000
N2   N   0.777750755298894   0.722216942551431   0.125145073781448   1.0000000
N2   N   0.611118043109115   0.222215290224221   0.125134450946776   1.0000000
N2   N   0.944430595094847   0.222209603392597   0.124844032208667   1.0000000
N2   N   0.111116390781903   0.388867146080792   0.624854926218553   1.0000000
N2   N   0.277793404502629   0.888908349674680   0.625084590358549   1.0000000
N2   N   0.611123729940737   0.888902738238482   0.625155967791333   1.0000000
N2   N   0.444444444444443   0.388888888888886   0.631712833174134   1.0000000
N2   N   0.944435237179335   0.888898096153994   0.625145571098818   1.0000000
N2   N   0.111114945172057   0.888908349674680   0.124915409641451   1.0000000
N2   N   0.777750755298894   0.388867146080792   0.624854926218553   1.0000000
N2   N   0.444462858974660   0.888898096153994   0.124854428901181   1.0000000
N2   N   0.277802117622273   0.388866395217437   0.124456284519032   1.0000000
N2   N   0.277796923516665   0.555536409816669   0.125190783412314   1.0000000
N2   N   0.611064277595171   0.388866395217437   0.124456284519032   1.0000000
N2   N   0.777779008297750   0.888902738238482   0.124844032208667   1.0000000
N2   N   0.944435237179335   0.388870474358669   0.124854428901181   1.0000000
N2   N   0.111114945172057   0.555539928830707   0.625084590358549   1.0000000
N2   N   0.277796923516665   0.055593847033328   0.624809216587685   1.0000000
N2   N   0.777739486300007   0.555536409816669   0.624809216587685   1.0000000
N2   N   0.611123729940737   0.055554325035585   0.625155967791333   1.0000000
N2   N   0.944430595094847   0.055554325035585   0.625155967791333   1.0000000
N2   N   0.054395855408649   0.110340642630092   0.375000000000000   1.0000000
N2   N   0.556044906859478   0.612089813718957   0.375000000000000   1.0000000
N2   N   0.387438400367643   0.103620118079356   0.375000000000000   1.0000000
N2   N   0.891572737832607   0.612453035582975   0.375000000000000   1.0000000
N2   N   0.722431819806396   0.110901513526938   0.375000000000000   1.0000000
N2   N   0.055556920783425   0.777776412549911   0.875000000000000   1.0000000
N2   N   0.388883451558309   0.777777250698651   0.875000000000000   1.0000000
N2   N   0.222223781698105   0.277778557515720   0.875000000000000   1.0000000
N2   N   0.722223339963856   0.777773573853207   0.875000000000000   1.0000000
N2   N   0.555554775817615   0.277778557515720   0.875000000000000   1.0000000
N2   N   0.888892340366151   0.277784680732311   0.875000000000000   1.0000000
N2   N   0.221686723329885   0.777510028331612   0.375000000000000   1.0000000
N2   N   0.054395855408649   0.277388546111893   0.375000000000000   1.0000000
N2   N   0.375990963014225   0.251981926028458   0.375000000000000   1.0000000
N2   N   0.555944787221441   0.778937477924687   0.375000000000000   1.0000000
N2   N   0.891000413213391   0.779436475438166   0.375000000000000   1.0000000
N2   N   0.722992690703245   0.277388546111893   0.375000000000000   1.0000000
N2   N   0.055556082634685   0.944439534192995   0.875000000000000   1.0000000
N2   N   0.388883451558309   0.944439534192995   0.875000000000000   1.0000000
N2   N   0.222218737389014   0.444451817245953   0.875000000000000   1.0000000
N2   N   0.555582015432234   0.444457674382781   0.875000000000000   1.0000000
N2   N   0.722220599433705   0.944441198867411   0.875000000000000   1.0000000
N2   N   0.888893799140334   0.444449881775020   0.875000000000000   1.0000000
N2   N   0.053896857895170   0.444897271108561   0.375000000000000   1.0000000
N2   N   0.220880297750361   0.941760595500722   0.375000000000000   1.0000000
N2   N   0.555874718293416   0.944604025813371   0.375000000000000   1.0000000
N2   N   0.375990963014225   0.457342370319103   0.375000000000000   1.0000000
N2   N   0.888729307519957   0.944604025813371   0.375000000000000   1.0000000
N2   N   0.729713215253981   0.445894932965686   0.375000000000000   1.0000000
N2   N   0.222217557186118   0.611115776147217   0.875000000000000   1.0000000
N2   N   0.055559759480128   0.111109993369480   0.875000000000000   1.0000000
N2   N   0.555554775817615   0.611109551635231   0.875000000000000   1.0000000
N2   N   0.388881516087376   0.111100253476397   0.875000000000000   1.0000000
N2   N   0.888898218961091   0.611115776147217   0.875000000000000   1.0000000
N2   N   0.055823305001725   0.611646610003450   0.375000000000000   1.0000000
N2   N   0.722220599433705   0.111112733899631   0.875000000000000   1.0000000
N2   N   0.216181717711706   0.103620118079356   0.375000000000000   1.0000000
N2   N   0.387438400367643   0.617151615621631   0.375000000000000   1.0000000
N2   N   0.729713215253981   0.617151615621631   0.375000000000000   1.0000000
N2   N   0.555944787221441   0.110340642630092   0.375000000000000   1.0000000
N2   N   0.388881516087376   0.611114595944323   0.875000000000000   1.0000000
N2   N   0.888469693720534   0.110901513526938   0.375000000000000   1.0000000
N2   N   0.222219491766486   0.777776412549911   0.875000000000000   1.0000000
N2   N   0.055559759480128   0.277783099443983   0.875000000000000   1.0000000
N2   N   0.388875658950547   0.277751317901101   0.875000000000000   1.0000000
N2   N   0.555550233889352   0.777773573853207   0.875000000000000   1.0000000
N2   N   0.888893799140334   0.777777250698651   0.875000000000000   1.0000000
N2   N   0.722223339963856   0.277783099443983   0.875000000000000   1.0000000
N2   N   0.055823305001725   0.777510028331612   0.375000000000000   1.0000000
N2   N   0.388436062224768   0.779436475438166   0.375000000000000   1.0000000
N2   N   0.221243519614379   0.277288426473857   0.375000000000000   1.0000000
N2   N   0.722992690703245   0.778937477924687   0.375000000000000   1.0000000
N2   N   0.556044906859478   0.277288426473857   0.375000000000000   1.0000000
N2   N   0.888729307519957   0.277458615039920   0.375000000000000   1.0000000
N2   N   0.055556082634685   0.444449881775020   0.875000000000000   1.0000000
N2   N   0.222217557186118   0.944435114372238   0.875000000000000   1.0000000
N2   N   0.555548652601025   0.944440992967177   0.875000000000000   1.0000000
N2   N   0.388875658950547   0.444457674382781   0.875000000000000   1.0000000
N2   N   0.888892340366151   0.944440992967177   0.875000000000000   1.0000000
N2   N   0.053896857895170   0.942332920119938   0.375000000000000   1.0000000
N2   N   0.722233079856939   0.444451817245953   0.875000000000000   1.0000000
N2   N   0.388436062224768   0.942332920119938   0.375000000000000   1.0000000
N2   N   0.216181717711706   0.445894932965686   0.375000000000000   1.0000000
N2   N   0.220880297750361   0.612453035582975   0.375000000000000   1.0000000
N2   N   0.581351407304878   0.457342370319103   0.375000000000000   1.0000000
N2   N   0.722431819806396   0.944863639612795   0.375000000000000   1.0000000
N2   N   0.891000413213391   0.444897271108561   0.375000000000000   1.0000000
N2   N   0.055556920783425   0.611113841566851   0.875000000000000   1.0000000
N2   N   0.222218737389014   0.111100253476397   0.875000000000000   1.0000000
N2   N   0.722233079856939   0.611114595944323   0.875000000000000   1.0000000
N2   N   0.555550233889352   0.111109993369480   0.875000000000000   1.0000000
N2   N   0.888892134465917   0.111112733899631   0.875000000000000   1.0000000
B2   B   0.107589605534004   0.052167236743012   0.375000000000000   1.0000000
B2   B   0.619576286793590   0.561898220167659   0.375000000000000   1.0000000
B2   B   0.444577631209009   0.052167236743012   0.375000000000000   1.0000000
B2   B   0.945519300254577   0.555905929359821   0.375000000000000   1.0000000
B2   B   0.777777777777779   0.055555555555557   0.375000000000000   1.0000000
B2   B   0.111111111111114   0.722222222222221   0.875000000000000   1.0000000
B2   B   0.444430591908092   0.722174313801425   0.875000000000000   1.0000000
B2   B   0.277846751188075   0.222274816851961   0.875000000000000   1.0000000
B2   B   0.777743721893332   0.722174313801425   0.875000000000000   1.0000000
B2   B   0.611073222290427   0.222260111042908   0.875000000000000   1.0000000
B2   B   0.944476748271271   0.222243238246745   0.875000000000000   1.0000000
B2   B   0.277427403973516   0.722946704228091   0.375000000000000   1.0000000
B2   B   0.110781721786881   0.222057527560105   0.375000000000000   1.0000000
B2   B   0.442321933374069   0.213757046539745   0.375000000000000   1.0000000
B2   B   0.611275805773231   0.722551611546455   0.375000000000000   1.0000000
B2   B   0.945519300254577   0.722946704228091   0.375000000000000   1.0000000
B2   B   0.777823574452425   0.221819193082643   0.375000000000000   1.0000000
B2   B   0.111123216493903   0.888903866433886   0.875000000000000   1.0000000
B2   B   0.444431263059067   0.888882298196198   0.875000000000000   1.0000000
B2   B   0.277846751188075   0.388905267669443   0.875000000000000   1.0000000
B2   B   0.611058516481375   0.388905267669443   0.875000000000000   1.0000000
B2   B   0.777766489975472   0.888856585062058   0.875000000000000   1.0000000
B2   B   0.944451035137131   0.388902070274262   0.875000000000000   1.0000000
B2   B   0.107589605534004   0.388755702124320   0.375000000000000   1.0000000
B2   B   0.277427403973516   0.887814033078752   0.375000000000000   1.0000000
B2   B   0.611514140250694   0.889337714703113   0.375000000000000   1.0000000
B2   B   0.944278148435320   0.889055184898008   0.375000000000000   1.0000000
B2   B   0.781166096590323   0.388755702124320   0.375000000000000   1.0000000
B2   B   0.277798869529544   0.555534463803791   0.875000000000000   1.0000000
B2   B   0.111159019531912   0.055589611440004   0.875000000000000   1.0000000
B2   B   0.611058516481375   0.555486582145259   0.875000000000000   1.0000000
B2   B   0.444430591908092   0.055589611440004   0.875000000000000   1.0000000
B2   B   0.944429466899443   0.555552683393345   0.875000000000000   1.0000000
B2   B   0.110386629105244   0.555905929359821   0.375000000000000   1.0000000
B2   B   0.777777777777779   0.055555555555557   0.875000000000000   1.0000000
B2   B   0.276018748320803   0.052037496641606   0.375000000000000   1.0000000
B2   B   0.442321933374069   0.561898220167659   0.375000000000000   1.0000000
B2   B   0.781295836691729   0.557314585012535   0.375000000000000   1.0000000
B2   B   0.611514140250694   0.055509758880910   0.375000000000000   1.0000000
B2   B   0.444428065663885   0.555486582145259   0.875000000000000   1.0000000
B2   B   0.943995618630216   0.055509758880910   0.375000000000000   1.0000000
B2   B   0.277780649939991   0.722210116839431   0.875000000000000   1.0000000
B2   B   0.111186888752487   0.222260111042908   0.875000000000000   1.0000000
B2   B   0.444428065663885   0.222274816851961   0.875000000000000   1.0000000
B2   B   0.611073222290427   0.722146444580849   0.875000000000000   1.0000000
B2   B   0.944429466899443   0.722210116839431   0.875000000000000   1.0000000
B2   B   0.777766489975472   0.222243238246745   0.875000000000000   1.0000000
B2   B   0.111111111111114   0.722222222222221   0.375000000000000   1.0000000
B2   B   0.444577631209009   0.725743727799331   0.375000000000000   1.0000000
B2   B   0.271435113165678   0.213757046539745   0.375000000000000   1.0000000
B2   B   0.781166096590323   0.725743727799331   0.375000000000000   1.0000000
B2   B   0.611275805773231   0.222057527560105   0.375000000000000   1.0000000
B2   B   0.943995618630216   0.221819193082643   0.375000000000000   1.0000000
B2   B   0.111159019531912   0.388902741425237   0.875000000000000   1.0000000
B2   B   0.277780649939991   0.888903866433886   0.875000000000000   1.0000000
B2   B   0.611090095086592   0.888856585062058   0.875000000000000   1.0000000
B2   B   0.444444444444443   0.388888888888886   0.875000000000000   1.0000000
B2   B   0.944451035137131   0.888882298196198   0.875000000000000   1.0000000
B2   B   0.110386629105244   0.887814033078752   0.375000000000000   1.0000000
B2   B   0.777743721893332   0.388902741425237   0.875000000000000   1.0000000
B2   B   0.444777036462688   0.889055184898008   0.375000000000000   1.0000000
B2   B   0.271435113165678   0.391011399959260   0.375000000000000   1.0000000
B2   B   0.276018748320803   0.557314585012535   0.375000000000000   1.0000000
B2   B   0.619576286793590   0.391011399959260   0.375000000000000   1.0000000
B2   B   0.777823574452425   0.889337714703113   0.375000000000000   1.0000000
B2   B   0.944278148435320   0.388556296870641   0.375000000000000   1.0000000
B2   B   0.111123216493903   0.555552683393345   0.875000000000000   1.0000000
B2   B   0.277798869529544   0.055597739059087   0.875000000000000   1.0000000
B2   B   0.777735594274248   0.555534463803791   0.875000000000000   1.0000000
B2   B   0.611090095086592   0.055566843357863   0.875000000000000   1.0000000
B2   B   0.944476748271271   0.055566843357863   0.875000000000000   1.0000000
B2   B   0.055632502040716   0.111196388540613   0.125272527615436   1.0000000
B2   B   0.555456275256834   0.610912550513670   0.125151902827357   1.0000000
B2   B   0.388978873990510   0.111366516644756   0.125446365451084   1.0000000
B2   B   0.888735116929527   0.611034225131436   0.125207170240607   1.0000000
B2   B   0.722213761015294   0.111119572318043   0.124995999163569   1.0000000
B2   B   0.055533400199280   0.777799933134056   0.624996169590743   1.0000000
B2   B   0.388951596998467   0.777740479886765   0.624855020255819   1.0000000
B2   B   0.222420782819667   0.277877058076501   0.624848097172642   1.0000000
B2   B   0.722136944792724   0.777700831292620   0.624727472384565   1.0000000
B2   B   0.555456275256834   0.277877058076501   0.624848097172642   1.0000000
B2   B   0.888876630382112   0.277753260764228   0.624997370688628   1.0000000
B2   B   0.222266532934776   0.777799933134056   0.125003830409258   1.0000000
B2   B   0.055632502040716   0.277769446833440   0.125272527615436   1.0000000
B2   B   0.389090123731207   0.278180247462421   0.123495220598498   1.0000000
B2   B   0.555563886499897   0.777700831292620   0.125272527615436   1.0000000
B2   B   0.888788882888292   0.777740479886765   0.125144979744180   1.0000000
B2   B   0.722136944792724   0.277769446833440   0.125272527615436   1.0000000
B2   B   0.055592853446571   0.944544450445037   0.624855020255819   1.0000000
B2   B   0.388951596998467   0.944544450445037   0.624855020255819   1.0000000
B2   B   0.222387642654238   0.444354459342819   0.624553634548917   1.0000000
B2   B   0.555153085870914   0.444243209602121   0.626504779401502   1.0000000
B2   B   0.722213761015294   0.944427522030586   0.625004000836431   1.0000000
B2   B   0.888788882888292   0.444381736334862   0.624855020255819   1.0000000
B2   B   0.055592853446571   0.444381736334862   0.125144979744180   1.0000000
B2   B   0.222299108201901   0.944598216403802   0.125207170240607   1.0000000
B2   B   0.555580072569107   0.944456702951217   0.125002629311371   1.0000000
B2   B   0.389090123731207   0.444243209602121   0.123495220598498   1.0000000
B2   B   0.888876630382112   0.944456702951217   0.125002629311371   1.0000000
B2   B   0.721966816688580   0.444354459342819   0.125446365451084   1.0000000
B2   B   0.222299108201901   0.611034225131436   0.624792829759391   1.0000000
B2   B   0.055632502040716   0.111196388540613   0.624727472384565   1.0000000
B2   B   0.555456275256834   0.610912550513670   0.624848097172642   1.0000000
B2   B   0.388978873990510   0.111366516644756   0.624553634548917   1.0000000
B2   B   0.888735116929527   0.611034225131436   0.624792829759391   1.0000000
B2   B   0.055533400199280   0.611066800398558   0.125003830409258   1.0000000
B2   B   0.722213761015294   0.111119572318043   0.625004000836431   1.0000000
B2   B   0.222387642654238   0.111366516644756   0.125446365451084   1.0000000
B2   B   0.388978873990510   0.610945690679097   0.125446365451084   1.0000000
B2   B   0.721966816688580   0.610945690679097   0.125446365451084   1.0000000
B2   B   0.555563886499897   0.111196388540613   0.125272527615436   1.0000000
B2   B   0.388978873990510   0.610945690679097   0.624553634548917   1.0000000
B2   B   0.888905811302743   0.111119572318043   0.124995999163569   1.0000000
B2   B   0.222266532934776   0.777799933134056   0.624996169590743   1.0000000
B2   B   0.055632502040716   0.277769446833440   0.624727472384565   1.0000000
B2   B   0.389090123731207   0.278180247462421   0.626504779401502   1.0000000
B2   B   0.555563886499897   0.777700831292620   0.624727472384565   1.0000000
B2   B   0.888788882888292   0.777740479886765   0.624855020255819   1.0000000
B2   B   0.722136944792724   0.277769446833440   0.624727472384565   1.0000000
B2   B   0.055533400199280   0.777799933134056   0.125003830409258   1.0000000
B2   B   0.388951596998467   0.777740479886765   0.125144979744180   1.0000000
B2   B   0.222420782819667   0.277877058076501   0.125151902827357   1.0000000
B2   B   0.722136944792724   0.777700831292620   0.125272527615436   1.0000000
B2   B   0.555456275256834   0.277877058076501   0.125151902827357   1.0000000
B2   B   0.888876630382112   0.277753260764228   0.125002629311371   1.0000000
B2   B   0.055592853446571   0.444381736334862   0.624855020255819   1.0000000
B2   B   0.222299108201901   0.944598216403802   0.624792829759391   1.0000000
B2   B   0.555580072569107   0.944456702951217   0.624997370688628   1.0000000
B2   B   0.389090123731207   0.444243209602121   0.626504779401502   1.0000000
B2   B   0.888876630382112   0.944456702951217   0.624997370688628   1.0000000
B2   B   0.055592853446571   0.944544450445037   0.125144979744180   1.0000000
B2   B   0.721966816688580   0.444354459342819   0.624553634548917   1.0000000
B2   B   0.388951596998467   0.944544450445037   0.125144979744180   1.0000000
B2   B   0.222387642654238   0.444354459342819   0.125446365451084   1.0000000
B2   B   0.222299108201901   0.611034225131436   0.125207170240607   1.0000000
B2   B   0.555153085870914   0.444243209602121   0.123495220598498   1.0000000
B2   B   0.722213761015294   0.944427522030586   0.124995999163569   1.0000000
B2   B   0.888788882888292   0.444381736334862   0.125144979744180   1.0000000
B2   B   0.055533400199280   0.611066800398558   0.624996169590743   1.0000000
B2   B   0.222387642654238   0.111366516644756   0.624553634548917   1.0000000
B2   B   0.721966816688580   0.610945690679097   0.624553634548917   1.0000000
B2   B   0.555563886499897   0.111196388540613   0.624727472384565   1.0000000
B2   B   0.888905811302743   0.111119572318043   0.625004000836431   1.0000000


