data_1
_audit_creation_method   'vasp2cif'
_cell_length_a    17.52789999999977
_cell_length_b    17.52789999999977
_cell_length_c    15.0
_cell_angle_alpha    90.0
_cell_angle_beta    90.0
_cell_angle_gamma    119.99999999999916

_symmetry_space_group_name_H-M    'P 1'
loop_
_atom_site_label
_atom_site_type_symbol
_atom_site_fract_x
_atom_site_fract_y
_atom_site_fract_z
_atom_site_occupancy
In2   In   0.432757298807122   0.502093852027562   0.111213250632837   1.0000000
B2   B   0.905293943220040   0.952764908266731   0.111015921014972   1.0000000
B2   B   0.906389523834236   0.096331309893101   0.111040758827527   1.0000000
B2   B   0.906830450935513   0.239129572313259   0.111098357009736   1.0000000
B2   B   0.906389523834236   0.381486907632132   0.111040758827527   1.0000000
B2   B   0.905293943220040   0.523959440201308   0.111015921014972   1.0000000
B2   B   0.903965636307507   0.666241729982078   0.111064994563278   1.0000000
B2   B   0.903965636307507   0.809154311573432   0.111064994563278   1.0000000
B2   B   0.046679956702309   0.951152028247456   0.111019169628739   1.0000000
B2   B   0.047497010589405   0.094105298271659   0.111000493186817   1.0000000
B2   B   0.049331989810897   0.238662693179097   0.111028122089497   1.0000000
B2   B   0.049331989810897   0.382099701878800   0.111028122089497   1.0000000
B2   B   0.047497010589405   0.524822117565739   0.111000493186817   1.0000000
B2   B   0.046679956702309   0.666960045258850   0.111019169628739   1.0000000
B2   B   0.046636015211799   0.809034066007902   0.111007491844849   1.0000000
B2   B   0.189372465149255   0.950945710719105   0.111023854154359   1.0000000
B2   B   0.189254154965097   0.092235722570605   0.111032521557703   1.0000000
B2   B   0.189288229294786   0.234382535029509   0.110988346933570   1.0000000
B2   B   0.192743790488897   0.382087097867948   0.111007807788492   1.0000000
B2   B   0.189288229294786   0.526336099513279   0.110988346933570   1.0000000
B2   B   0.189254154965097   0.668448837642485   0.111032521557703   1.0000000
B2   B   0.189372465149255   0.809858871234156   0.111023854154359   1.0000000
B2   B   0.332785960184146   0.952109038493575   0.111045927147988   1.0000000
B2   B   0.332685854288499   0.091499443545868   0.111068844175887   1.0000000
B2   B   0.332167088231526   0.230044902663009   0.111021210381653   1.0000000
B2   B   0.329357839005746   0.364582693843091   0.111113108715277   1.0000000
B2   B   0.329357839005746   0.536205550409653   0.111113108715277   1.0000000
B2   B   0.332167088231526   0.673552590815515   0.111021210381653   1.0000000
B2   B   0.332685854288499   0.812616815989631   0.111068844175887   1.0000000
B2   B   0.476781627601393   0.954334025621790   0.111019969907425   1.0000000
B2   B   0.476781627601393   0.093878007226603   0.111019969907425   1.0000000
B2   B   0.476914589626724   0.233148415489107   0.111014157300171   1.0000000
B2   B   0.478466328630901   0.372899403293343   0.111049640495404   1.0000000
B2   B   0.478466328630901   0.676997330584559   0.111049640495404   1.0000000
B2   B   0.476914589626724   0.815196579384624   0.111014157300171   1.0000000
B2   B   0.620717772000969   0.955116195050992   0.110979371027473   1.0000000
B2   B   0.620641384719657   0.096035039205324   0.110992380704150   1.0000000
B2   B   0.620717772000969   0.237031982196974   0.110979371027473   1.0000000
B2   B   0.621184934749885   0.378853438164935   0.110993947297415   1.0000000
B2   B   0.619103494554838   0.519835640353043   0.111018231180604   1.0000000
B2   B   0.619103494554838   0.670698259449789   0.111018231180604   1.0000000
B2   B   0.621184934749885   0.813761901831950   0.110993947297415   1.0000000
B2   B   0.763752512902693   0.954572713158043   0.110987971568424   1.0000000
B2   B   0.763908934535796   0.096713638340152   0.111028622038726   1.0000000
B2   B   0.763908934535796   0.238623989886642   0.111028622038726   1.0000000
B2   B   0.763752512902693   0.380610204991652   0.110987971568424   1.0000000
B2   B   0.762712191618817   0.522755801136216   0.111036702167871   1.0000000
B2   B   0.760961737673052   0.666196071460523   0.111090205188158   1.0000000
B2   B   0.762712191618817   0.811386795730602   0.111036702167871   1.0000000
N2   N   0.951659666806017   0.904070512029511   0.111025081044997   1.0000000
N2   N   0.952866865616014   0.047659375140242   0.110994868982919   1.0000000
N2   N   0.954480678380466   0.191611436246672   0.111051301610086   1.0000000
N2   N   0.954480678380466   0.334296224251793   0.111051301610086   1.0000000
N2   N   0.952866865616014   0.476634472593770   0.110994868982919   1.0000000
N2   N   0.951659666806017   0.619017848451504   0.111025081044997   1.0000000
N2   N   0.951094255471681   0.761261474573342   0.111037246648815   1.0000000
N2   N   0.094188225749707   0.903763939683780   0.110989263251261   1.0000000
N2   N   0.094482075308509   0.046059378556042   0.110994509586968   1.0000000
N2   N   0.095254212379296   0.189248544029733   0.110974687448974   1.0000000
N2   N   0.097944499687749   0.334686596680876   0.110996765367876   1.0000000
N2   N   0.095254212379296   0.477434362023564   0.110974687448974   1.0000000
N2   N   0.094482075308509   0.619851390427468   0.110994509586968   1.0000000
N2   N   0.094188225749707   0.761854691296933   0.110989263251261   1.0000000
N2   N   0.237500501669583   0.904465453450291   0.111003034976742   1.0000000
N2   N   0.237469699026159   0.045565801282025   0.111043111220214   1.0000000
N2   N   0.237328959151208   0.187016366338027   0.110997158423528   1.0000000
N2   N   0.237783039073468   0.330203543288470   0.110997036009695   1.0000000
N2   N   0.237783039073468   0.479008189458992   0.110997036009695   1.0000000
N2   N   0.237328959151208   0.621741286488177   0.110997158423528   1.0000000
N2   N   0.237469699026159   0.763332591419137   0.111043111220214   1.0000000
N2   N   0.381373781514941   0.906561778043699   0.111040886246227   1.0000000
N2   N   0.381373781514941   0.046240697146245   0.111040886246227   1.0000000
N2   N   0.381427053830906   0.185618560567064   0.111021606820932   1.0000000
N2   N   0.381174949609613   0.323905680371382   0.111021473939025   1.0000000
N2   N   0.381174949609613   0.628697962913228   0.111021473939025   1.0000000
N2   N   0.381427053830906   0.767237186938844   0.111021606820932   1.0000000
N2   N   0.525418075197553   0.908692579021820   0.110982920407877   1.0000000
N2   N   0.525355574219394   0.048391278169200   0.110985053839731   1.0000000
N2   N   0.525418075197553   0.188154189850736   0.110982920407877   1.0000000
N2   N   0.525815158803925   0.327474274527718   0.111000985196631   1.0000000
N2   N   0.527084375764380   0.465808634211999   0.111022020178921   1.0000000
N2   N   0.527084375764380   0.632704435227377   0.111022020178921   1.0000000
N2   N   0.525815158803925   0.769769577951210   0.111000985196631   1.0000000
N2   N   0.668766051583512   0.907984325691414   0.110965244836591   1.0000000
N2   N   0.668781235158547   0.049449039193739   0.110977678321331   1.0000000
N2   N   0.668781235158547   0.190759178083815   0.110977678321331   1.0000000
N2   N   0.668766051583513   0.332210419567101   0.110965244836591   1.0000000
N2   N   0.668461240515377   0.474385909398074   0.110990360388106   1.0000000
N2   N   0.664137523099161   0.617783108387578   0.111019742671577   1.0000000
N2   N   0.668461240515377   0.765504024792305   0.110990360388106   1.0000000
N2   N   0.810466365572630   0.906022038055383   0.110998893637864   1.0000000
N2   N   0.811484388629981   0.049294528046856   0.111001007250117   1.0000000
N2   N   0.811776492387257   0.191601737252631   0.111052422965054   1.0000000
N2   N   0.811484388629981   0.333616842701130   0.111001007250117   1.0000000
N2   N   0.810466365572630   0.475873021191247   0.110998893637864   1.0000000
N2   N   0.808390459670475   0.618412834141651   0.111061180430938   1.0000000
N2   N   0.808390459670475   0.761406319203828   0.111061180430938   1.0000000


