data_1
_audit_creation_method   'vasp2cif'
_cell_length_a    14.93631414619966
_cell_length_b    14.936314146199727
_cell_length_c    13.341276283792837
_cell_angle_alpha    90.0
_cell_angle_beta    90.0
_cell_angle_gamma    119.99999999999984

_symmetry_space_group_name_H-M    'P 1'
loop_
_atom_site_label
_atom_site_type_symbol
_atom_site_fract_x
_atom_site_fract_y
_atom_site_fract_z
_atom_site_occupancy
Al2   Al   0.487061378284531   0.410197355808930   0.375000000000000   1.0000000
N2   N   0.111174798684964   0.055595108108775   0.124863543910433   1.0000000
N2   N   0.611267096596110   0.555717635047795   0.123103891389669   1.0000000
N2   N   0.444521273206323   0.055576065304127   0.124853190159533   1.0000000
N2   N   0.944480759704014   0.555562849150411   0.124974392348186   1.0000000
N2   N   0.777862690614383   0.055598011973860   0.124854352548855   1.0000000
N2   N   0.111144186036368   0.722238759684849   0.625096711425978   1.0000000
N2   N   0.444521273206323   0.722278541235532   0.625146809840466   1.0000000
N2   N   0.277851863516490   0.222255802936820   0.625003753771187   1.0000000
N2   N   0.777855629498415   0.722301408169218   0.625311259427043   1.0000000
N2   N   0.611202249566954   0.222219312501054   0.625419930882394   1.0000000
N2   N   0.944521644318848   0.222250604589050   0.625119922654385   1.0000000
N2   N   0.277829935530008   0.722247467383295   0.124901794244260   1.0000000
N2   N   0.111185351492255   0.222259342412792   0.124882937871298   1.0000000
N2   N   0.444550316725490   0.222244228842345   0.124737574260786   1.0000000
N2   N   0.611202249566954   0.722316270399229   0.124580069117605   1.0000000
N2   N   0.944480759704014   0.722251243886939   0.124974392348186   1.0000000
N2   N   0.777859397739840   0.222230931469566   0.124886553314187   1.0000000
N2   N   0.111155288030966   0.888920589774083   0.625091824831981   1.0000000
N2   N   0.444511570397222   0.888922451865275   0.625098192716466   1.0000000
N2   N   0.277851863516490   0.388929393912999   0.625003753771187   1.0000000
N2   N   0.611267096596110   0.388882794881643   0.626896108610331   1.0000000
N2   N   0.777859397739840   0.888961799603602   0.625113446685813   1.0000000
N2   N   0.944506249099703   0.388897349051042   0.625042736384246   1.0000000
N2   N   0.111174798684964   0.388913023909518   0.124863543910433   1.0000000
N2   N   0.277829935530008   0.888915801480043   0.124901794244260   1.0000000
N2   N   0.611191910737195   0.888948427098025   0.124893780179678   1.0000000
N2   N   0.444575378741467   0.388954356037397   0.126335821787791   1.0000000
N2   N   0.944506249099703   0.888942233381988   0.124957263615754   1.0000000
N2   N   0.777855629498415   0.388887554662525   0.124688740572957   1.0000000
N2   N   0.277847924205316   0.555590704723606   0.625083633740106   1.0000000
N2   N   0.111174798684964   0.055595108108775   0.625136456089567   1.0000000
N2   N   0.611267096596110   0.555717635047795   0.626896108610331   1.0000000
N2   N   0.444521273206323   0.055576065304127   0.625146809840466   1.0000000
N2   N   0.944480759704014   0.555562849150411   0.625025607651813   1.0000000
N2   N   0.111155288030966   0.555568031590212   0.124908175168019   1.0000000
N2   N   0.777862690614383   0.055598011973860   0.625145647451144   1.0000000
N2   N   0.277847924205316   0.055590552815045   0.124916366259894   1.0000000
N2   N   0.444550316725490   0.555639421216481   0.124737574260786   1.0000000
N2   N   0.777833584747669   0.555583459040502   0.124505844667117   1.0000000
N2   N   0.611191910737195   0.055576816972498   0.124893780179678   1.0000000
N2   N   0.444550316725490   0.555639421216481   0.625262425739213   1.0000000
N2   N   0.944521644318848   0.055604373063133   0.124880077345616   1.0000000
N2   N   0.277829935530008   0.722247467383295   0.625098205755740   1.0000000
N2   N   0.111185351492255   0.222259342412792   0.625117062128702   1.0000000
N2   N   0.444550316725490   0.222244228842345   0.625262425739213   1.0000000
N2   N   0.611202249566954   0.722316270399229   0.625419930882394   1.0000000
N2   N   0.944480759704014   0.722251243886939   0.625025607651813   1.0000000
N2   N   0.777859397739840   0.222230931469566   0.625113446685813   1.0000000
N2   N   0.111144186036368   0.722238759684849   0.124903288574022   1.0000000
N2   N   0.444521273206323   0.722278541235532   0.124853190159533   1.0000000
N2   N   0.277851863516490   0.222255802936820   0.124996246228813   1.0000000
N2   N   0.777855629498415   0.722301408169218   0.124688740572957   1.0000000
N2   N   0.611202249566954   0.222219312501054   0.124580069117605   1.0000000
N2   N   0.944521644318848   0.222250604589050   0.124880077345616   1.0000000
N2   N   0.111174798684964   0.388913023909518   0.625136456089567   1.0000000
N2   N   0.277829935530008   0.888915801480043   0.625098205755740   1.0000000
N2   N   0.611191910737195   0.888948427098025   0.625106219820321   1.0000000
N2   N   0.444575378741467   0.388954356037397   0.623664178212209   1.0000000
N2   N   0.944506249099703   0.888942233381988   0.625042736384246   1.0000000
N2   N   0.111155288030966   0.888920589774083   0.124908175168019   1.0000000
N2   N   0.777855629498415   0.388887554662525   0.625311259427043   1.0000000
N2   N   0.444511570397222   0.888922451865275   0.124901807283534   1.0000000
N2   N   0.277851863516490   0.388929393912999   0.124996246228813   1.0000000
N2   N   0.277847924205316   0.555590704723606   0.124916366259894   1.0000000
N2   N   0.611267096596110   0.388882794881643   0.123103891389669   1.0000000
N2   N   0.777859397739840   0.888961799603602   0.124886553314187   1.0000000
N2   N   0.944506249099703   0.388897349051042   0.124957263615754   1.0000000
N2   N   0.111155288030966   0.555568031590212   0.625091824831981   1.0000000
N2   N   0.277847924205316   0.055590552815045   0.625083633740106   1.0000000
N2   N   0.777833584747669   0.555583459040502   0.625494155332883   1.0000000
N2   N   0.611191910737195   0.055576816972498   0.625106219820321   1.0000000
N2   N   0.944521644318848   0.055604373063133   0.625119922654385   1.0000000
N2   N   0.058655883089028   0.112770264165210   0.375000000000000   1.0000000
N2   N   0.556372144615342   0.619731377361889   0.375000000000000   1.0000000
N2   N   0.388526023872586   0.105959062169753   0.375000000000000   1.0000000
N2   N   0.886650121932324   0.609991727632835   0.375000000000000   1.0000000
N2   N   0.724550856764675   0.111486915350763   0.375000000000000   1.0000000
N2   N   0.055543674448580   0.777771973083211   0.875000000000000   1.0000000
N2   N   0.388869730644752   0.777771149223950   0.875000000000000   1.0000000
N2   N   0.222207599282113   0.277770466307724   0.875000000000000   1.0000000
N2   N   0.722206418234328   0.777769000763519   0.875000000000000   1.0000000
N2   N   0.555534106292111   0.277760875979840   0.875000000000000   1.0000000
N2   N   0.888875349551140   0.277773755652697   0.875000000000000   1.0000000
N2   N   0.221209661536310   0.777271497434823   0.375000000000000   1.0000000
N2   N   0.058655883089028   0.279218952257154   0.375000000000000   1.0000000
N2   N   0.391442692523631   0.271990043475014   0.375000000000000   1.0000000
N2   N   0.556548250943508   0.781980167738379   0.375000000000000   1.0000000
N2   N   0.888908698249236   0.778127092146954   0.375000000000000   1.0000000
N2   N   0.724098428195517   0.276680025261713   0.375000000000000   1.0000000
N2   N   0.055541019486955   0.944434863024439   0.875000000000000   1.0000000
N2   N   0.388869730644752   0.944431914754137   0.875000000000000   1.0000000
N2   N   0.222206559776280   0.444439290045525   0.875000000000000   1.0000000
N2   N   0.555528451789848   0.444430892561588   0.875000000000000   1.0000000
N2   N   0.722202057383836   0.944434016774757   0.875000000000000   1.0000000
N2   N   0.888880001011843   0.444440740731679   0.875000000000000   1.0000000
N2   N   0.056280793978552   0.445131197078401   0.375000000000000   1.0000000
N2   N   0.221490625614766   0.942739130866938   0.375000000000000   1.0000000
N2   N   0.556630400254615   0.944981866793971   0.375000000000000   1.0000000
N2   N   0.391442692523631   0.452785982381952   0.375000000000000   1.0000000
N2   N   0.891283509619757   0.946225232787238   0.375000000000000   1.0000000
N2   N   0.720587252837737   0.442163793825071   0.375000000000000   1.0000000
N2   N   0.222205188358581   0.611104748429076   0.875000000000000   1.0000000
N2   N   0.055540614450539   0.111101235838288   0.875000000000000   1.0000000
N2   N   0.555534106292111   0.611106563645607   0.875000000000000   1.0000000
N2   N   0.388871454139752   0.111097561203911   0.875000000000000   1.0000000
N2   N   0.888885319473257   0.611109326403300   0.875000000000000   1.0000000
N2   N   0.054354066443630   0.610841213011988   0.375000000000000   1.0000000
N2   N   0.722202057383836   0.111101373942415   0.875000000000000   1.0000000
N2   N   0.223509916902957   0.110407682660074   0.375000000000000   1.0000000
N2   N   0.388526023872586   0.615900295036177   0.375000000000000   1.0000000
N2   N   0.720587252837737   0.611756792346002   0.375000000000000   1.0000000
N2   N   0.556548250943508   0.107901416538465   0.375000000000000   1.0000000
N2   N   0.388871454139752   0.611107226269184   0.875000000000000   1.0000000
N2   N   0.891851875019871   0.112592604176607   0.375000000000000   1.0000000
N2   N   0.222205483769560   0.777769408551448   0.875000000000000   1.0000000
N2   N   0.055540614450539   0.277772711945587   0.875000000000000   1.0000000
N2   N   0.388875627563188   0.277771682503571   0.875000000000000   1.0000000
N2   N   0.555534219593843   0.777771226213500   0.875000000000000   1.0000000
N2   N   0.888880001011843   0.777772593613500   0.875000000000000   1.0000000
N2   N   0.722206418234328   0.277770750804145   0.875000000000000   1.0000000
N2   N   0.054354066443630   0.776846186764977   0.375000000000000   1.0000000
N2   N   0.388602920785940   0.779223843876399   0.375000000000000   1.0000000
N2   N   0.226794641843364   0.280063987588350   0.375000000000000   1.0000000
N2   N   0.724098428195517   0.780751736267140   0.375000000000000   1.0000000
N2   N   0.556372144615342   0.269974100586789   0.375000000000000   1.0000000
N2   N   0.891283509619757   0.278391610165856   0.375000000000000   1.0000000
N2   N   0.055541019486955   0.444439489795845   0.875000000000000   1.0000000
N2   N   0.222205188358581   0.944433773262841   0.875000000000000   1.0000000
N2   N   0.555532245014308   0.944432789173819   0.875000000000000   1.0000000
N2   N   0.388875627563188   0.444437278392952   0.875000000000000   1.0000000
N2   N   0.888875349551140   0.944434927231780   0.875000000000000   1.0000000
N2   N   0.056280793978552   0.944482930233479   0.375000000000000   1.0000000
N2   N   0.722215255360380   0.444442201808042   0.875000000000000   1.0000000
N2   N   0.388602920785940   0.942712410242877   0.375000000000000   1.0000000
N2   N   0.223509916902957   0.446435567576217   0.375000000000000   1.0000000
N2   N   0.221490625614766   0.612084828081163   0.375000000000000   1.0000000
N2   N   0.724550856764675   0.946397274747247   0.375000000000000   1.0000000
N2   N   0.888908698249236   0.444114939435617   0.375000000000000   1.0000000
N2   N   0.055543674448580   0.611105034698705   0.875000000000000   1.0000000
N2   N   0.222206559776280   0.111100603064090   0.875000000000000   1.0000000
N2   N   0.722215255360380   0.611106386885676   0.875000000000000   1.0000000
N2   N   0.555534219593843   0.111096326713680   0.875000000000000   1.0000000
N2   N   0.888873772434663   0.111103552884003   0.875000000000000   1.0000000
B2   B   0.113140676162701   0.056038500697147   0.375000000000000   1.0000000
B2   B   0.608489647636339   0.561095024624334   0.375000000000000   1.0000000
B2   B   0.445163968812609   0.052930327599612   0.375000000000000   1.0000000
B2   B   0.942958648750223   0.555104829441729   0.375000000000000   1.0000000
B2   B   0.780697234483077   0.057015283908206   0.375000000000000   1.0000000
B2   B   0.111089589947517   0.722211461640423   0.875000000000000   1.0000000
B2   B   0.444426855167253   0.722190846350409   0.875000000000000   1.0000000
B2   B   0.277801207316852   0.222243591907680   0.875000000000000   1.0000000
B2   B   0.777732786791324   0.722170231032343   0.875000000000000   1.0000000
B2   B   0.611074667466654   0.222240608773124   0.875000000000000   1.0000000
B2   B   0.944439977916385   0.222226480712264   0.875000000000000   1.0000000
B2   B   0.277422314185166   0.722774832241455   0.375000000000000   1.0000000
B2   B   0.115946093945468   0.224639713639398   0.375000000000000   1.0000000
B2   B   0.444438871838138   0.216386238170786   0.375000000000000   1.0000000
B2   B   0.612842690933528   0.727908937037528   0.375000000000000   1.0000000
B2   B   0.942958648750223   0.721187152641831   0.375000000000000   1.0000000
B2   B   0.780216178990769   0.222508407035429   0.375000000000000   1.0000000
B2   B   0.111099772272071   0.888885543250337   0.875000000000000   1.0000000
B2   B   0.444421593390879   0.888877463362103   0.875000000000000   1.0000000
B2   B   0.277801207316852   0.388890948742501   0.875000000000000   1.0000000
B2   B   0.611073798241708   0.388890867061258   0.875000000000000   1.0000000
B2   B   0.777747313430372   0.888850022136684   0.875000000000000   1.0000000
B2   B   0.944425414179214   0.388892111468038   0.875000000000000   1.0000000
B2   B   0.113140676162701   0.390435508798882   0.375000000000000   1.0000000
B2   B   0.277422314185166   0.887980815277038   0.375000000000000   1.0000000
B2   B   0.613161765172825   0.891443621695870   0.375000000000000   1.0000000
B2   B   0.945342676421730   0.889276877876658   0.375000000000000   1.0000000
B2   B   0.777432514240869   0.388122395470113   0.375000000000000   1.0000000
B2   B   0.277782970787234   0.555541123682479   0.875000000000000   1.0000000
B2   B   0.111120824516739   0.055562564203475   0.875000000000000   1.0000000
B2   B   0.611073798241708   0.555516264513779   0.875000000000000   1.0000000
B2   B   0.444426855167253   0.055569342150179   0.875000000000000   1.0000000
B2   B   0.944411921223010   0.555546332888540   0.875000000000000   1.0000000
B2   B   0.110647487712194   0.556028732829855   0.375000000000000   1.0000000
B2   B   0.777755019164021   0.055544176248678   0.875000000000000   1.0000000
B2   B   0.277924917651221   0.053805376074775   0.375000000000000   1.0000000
B2   B   0.444438871838138   0.561385967000689   0.375000000000000   1.0000000
B2   B   0.774116429913407   0.553724881623373   0.375000000000000   1.0000000
B2   B   0.613161765172825   0.055051476810284   0.375000000000000   1.0000000
B2   B   0.444445197041182   0.555530643580872   0.875000000000000   1.0000000
B2   B   0.947722281283168   0.057397689917598   0.375000000000000   1.0000000
B2   B   0.277764510900901   0.722208150002939   0.875000000000000   1.0000000
B2   B   0.111130715871711   0.222232024602520   0.875000000000000   1.0000000
B2   B   0.444445197041182   0.222247886793645   0.875000000000000   1.0000000
B2   B   0.611074667466654   0.722167392026858   0.875000000000000   1.0000000
B2   B   0.944411921223010   0.722198921667807   0.875000000000000   1.0000000
B2   B   0.777747313430372   0.222230624627017   0.875000000000000   1.0000000
B2   B   0.110060794742154   0.721697064037742   0.375000000000000   1.0000000
B2   B   0.445163968812609   0.725566974546333   0.375000000000000   1.0000000
B2   B   0.282688027156686   0.223095627440812   0.375000000000000   1.0000000
B2   B   0.777432514240869   0.722643452104084   0.375000000000000   1.0000000
B2   B   0.612842690933528   0.218267087229330   0.375000000000000   1.0000000
B2   B   0.947722281283168   0.223657924698905   0.375000000000000   1.0000000
B2   B   0.111120824516739   0.388891593646593   0.875000000000000   1.0000000
B2   B   0.277764510900901   0.888889694231291   0.875000000000000   1.0000000
B2   B   0.611079508617054   0.888858746048427   0.875000000000000   1.0000000
B2   B   0.444455711752072   0.388894522542701   0.875000000000000   1.0000000
B2   B   0.944425414179214   0.888866636044506   0.875000000000000   1.0000000
B2   B   0.110647487712194   0.887952088215668   0.375000000000000   1.0000000
B2   B   0.777732786791324   0.388895889092309   0.875000000000000   1.0000000
B2   B   0.445199971956914   0.889266652645121   0.375000000000000   1.0000000
B2   B   0.282688027156686   0.392925733049202   0.375000000000000   1.0000000
B2   B   0.277924917651221   0.557452874909783   0.375000000000000   1.0000000
B2   B   0.608489647636339   0.380727956345332   0.375000000000000   1.0000000
B2   B   0.780216178990769   0.891041105288668   0.375000000000000   1.0000000
B2   B   0.945342676421730   0.389399131878400   0.375000000000000   1.0000000
B2   B   0.111099772272071   0.555547562355063   0.875000000000000   1.0000000
B2   B   0.277782970787234   0.055575180438090   0.875000000000000   1.0000000
B2   B   0.777728140523157   0.555530736928246   0.875000000000000   1.0000000
B2   B   0.611079508617054   0.055554095901953   0.875000000000000   1.0000000
B2   B   0.944439977916385   0.055546830537458   0.875000000000000   1.0000000
B2   B   0.055682855221035   0.111201404105342   0.125127634132067   1.0000000
B2   B   0.555669796132829   0.611075873929573   0.124766957033974   1.0000000
B2   B   0.389026987612195   0.111278930557530   0.125206695192083   1.0000000
B2   B   0.888792103742121   0.611062718537733   0.125157812389466   1.0000000
B2   B   0.722290447399244   0.111152582415634   0.125079654012006   1.0000000
B2   B   0.055550891503756   0.777796696581627   0.624876753255331   1.0000000
B2   B   0.388981517683383   0.777783571408083   0.624907522010218   1.0000000
B2   B   0.222407148464085   0.277870240898710   0.624545102023706   1.0000000
B2   B   0.722239573847680   0.777762093797972   0.624985926918947   1.0000000
B2   B   0.555669796132829   0.277927255536591   0.625233042966026   1.0000000
B2   B   0.888943931782545   0.277789843556811   0.624885970339324   1.0000000
B2   B   0.222273776800726   0.777803555067031   0.125067678367066   1.0000000
B2   B   0.055682855221035   0.277814784449028   0.125127634132067   1.0000000
B2   B   0.389015856980470   0.277821224260128   0.126178935430691   1.0000000
B2   B   0.555645129514595   0.777764123385796   0.125085096242043   1.0000000
B2   B   0.888862799303980   0.777777816355958   0.125153320903717   1.0000000
B2   B   0.722239573847680   0.277810813383045   0.125014073081053   1.0000000
B2   B   0.055621455474681   0.944526323203199   0.624876460582655   1.0000000
B2   B   0.388981517683383   0.944531279608637   0.624907522010218   1.0000000
B2   B   0.222374223310480   0.444443052807057   0.624737647988046   1.0000000
B2   B   0.555854139614424   0.444593736473876   0.624381048045986   1.0000000
B2   B   0.722290447399244   0.944471198316946   0.624920345987994   1.0000000
B2   B   0.888862799303980   0.444418316281360   0.624846679096282   1.0000000
B2   B   0.055621455474681   0.444428465604810   0.125123539417345   1.0000000
B2   B   0.222309141427291   0.944556292246122   0.125122687292096   1.0000000
B2   B   0.555640732238347   0.944487032785838   0.125102465686737   1.0000000
B2   B   0.389015856980470   0.444527966053678   0.126178935430691   1.0000000
B2   B   0.888943931782545   0.944487421559070   0.125114029660676   1.0000000
B2   B   0.722154711486844   0.444417747463878   0.124549533359188   1.0000000
B2   B   0.222309141427291   0.611086182514503   0.624877312707904   1.0000000
B2   B   0.055682855221035   0.111201404105342   0.624872365867933   1.0000000
B2   B   0.555669796132829   0.611075873929573   0.625233042966026   1.0000000
B2   B   0.389026987612195   0.111278930557530   0.624793304807916   1.0000000
B2   B   0.888792103742121   0.611062718537733   0.624842187610534   1.0000000
B2   B   0.055550891503756   0.611087528255467   0.125123246744669   1.0000000
B2   B   0.722290447399244   0.111152582415634   0.624920345987994   1.0000000
B2   B   0.222374223310480   0.111264503836758   0.125262352011953   1.0000000
B2   B   0.389026987612195   0.611081390388009   0.125206695192083   1.0000000
B2   B   0.722154711486844   0.611070297356302   0.124549533359188   1.0000000
B2   B   0.555645129514595   0.111214339462135   0.125085096242043   1.0000000
B2   B   0.389026987612195   0.611081390388009   0.624793304807916   1.0000000
B2   B   0.888976946493762   0.111155139913552   0.125059875897386   1.0000000
B2   B   0.222273776800726   0.777803555067031   0.624932321632934   1.0000000
B2   B   0.055682855221034   0.277814784449028   0.624872365867933   1.0000000
B2   B   0.389015856980470   0.277821224260128   0.623821064569308   1.0000000
B2   B   0.555645129514595   0.777764123385796   0.624914903757958   1.0000000
B2   B   0.888862799303980   0.777777816355958   0.624846679096282   1.0000000
B2   B   0.722239573847680   0.277810813383045   0.624985926918947   1.0000000
B2   B   0.055550891503756   0.777796696581627   0.125123246744669   1.0000000
B2   B   0.388981517683383   0.777783571408083   0.125092477989783   1.0000000
B2   B   0.222407148464085   0.277870240898710   0.125454897976294   1.0000000
B2   B   0.722239573847680   0.777762093797972   0.125014073081053   1.0000000
B2   B   0.555669796132829   0.277927255536591   0.124766957033974   1.0000000
B2   B   0.888943931782545   0.277789843556811   0.125114029660676   1.0000000
B2   B   0.055621455474681   0.444428465604810   0.624876460582655   1.0000000
B2   B   0.222309141427291   0.944556292246122   0.624877312707904   1.0000000
B2   B   0.555640732238347   0.944487032785838   0.624897534313262   1.0000000
B2   B   0.389015856980470   0.444527966053678   0.623821064569308   1.0000000
B2   B   0.888943931782545   0.944487421559070   0.624885970339324   1.0000000
B2   B   0.055621455474681   0.944526323203199   0.125123539417345   1.0000000
B2   B   0.722154711486844   0.444417747463878   0.625450466640812   1.0000000
B2   B   0.388981517683383   0.944531279608637   0.125092477989783   1.0000000
B2   B   0.222374223310480   0.444443052807057   0.125262352011953   1.0000000
B2   B   0.222309141427291   0.611086182514503   0.125122687292096   1.0000000
B2   B   0.555854139614424   0.444593736473876   0.125618951954013   1.0000000
B2   B   0.722290447399244   0.944471198316946   0.125079654012006   1.0000000
B2   B   0.888862799303980   0.444418316281360   0.125153320903717   1.0000000
B2   B   0.055550891503756   0.611087528255467   0.624876753255331   1.0000000
B2   B   0.222374223310480   0.111264503836758   0.624737647988046   1.0000000
B2   B   0.722154711486844   0.611070297356302   0.625450466640812   1.0000000
B2   B   0.555645129514595   0.111214339462135   0.624914903757958   1.0000000
B2   B   0.888976946493762   0.111155139913552   0.624940124102614   1.0000000


