data_1
_audit_creation_method   'vasp2cif'
_cell_length_a    14.93631414619966
_cell_length_b    14.936314146199727
_cell_length_c    13.341276283792837
_cell_angle_alpha    90.0
_cell_angle_beta    90.0
_cell_angle_gamma    119.99999999999984

_symmetry_space_group_name_H-M    'P 1'
loop_
_atom_site_label
_atom_site_type_symbol
_atom_site_fract_x
_atom_site_fract_y
_atom_site_fract_z
_atom_site_occupancy
C2   C   0.549029233704969   0.441181283519149   0.375000000000000   1.0000000
N2   N   0.111132794788319   0.055558413631663   0.125235257793261   1.0000000
N2   N   0.611093151138458   0.555558199439839   0.125696772983798   1.0000000
N2   N   0.444457290747853   0.055549680530945   0.125219961642706   1.0000000
N2   N   0.944443584069858   0.555562360459335   0.125198889268804   1.0000000
N2   N   0.777808320304458   0.055570826818897   0.125096297353844   1.0000000
N2   N   0.111113131663348   0.722223232498338   0.624846394886698   1.0000000
N2   N   0.444457290747853   0.722240943550242   0.624780038357294   1.0000000
N2   N   0.277796152821675   0.222234588749784   0.624243621066787   1.0000000
N2   N   0.777777517473251   0.722215994398181   0.624726797646343   1.0000000
N2   N   0.611120331977758   0.222214709538543   0.624735763263310   1.0000000
N2   N   0.944476443073405   0.222244570151663   0.624878830164856   1.0000000
N2   N   0.277783458661134   0.722227136225362   0.125187923666301   1.0000000
N2   N   0.111137785861640   0.222235559597484   0.125287195909746   1.0000000
N2   N   0.444463742034310   0.222216852349532   0.125774293419985   1.0000000
N2   N   0.611120331977758   0.722238955772545   0.125264236736690   1.0000000
N2   N   0.944443584069858   0.722214556943859   0.125198889268804   1.0000000
N2   N   0.777800725781580   0.222237053695225   0.125104214247517   1.0000000
N2   N   0.111120373029916   0.888885618942387   0.624815139404873   1.0000000
N2   N   0.444456459555259   0.888894896444295   0.624892238987265   1.0000000
N2   N   0.277796152821675   0.388894897405219   0.624243621066787   1.0000000
N2   N   0.611093151138458   0.388868285031948   0.624303227016203   1.0000000
N2   N   0.777800725781580   0.888897005419681   0.624895785752484   1.0000000
N2   N   0.944461910347380   0.388908800917327   0.624859475183404   1.0000000
N2   N   0.111132794788319   0.388907714489985   0.125235257793261   1.0000000
N2   N   0.277783458661134   0.888889655769101   0.125187923666301   1.0000000
N2   N   0.611128399585743   0.888902638474401   0.125079325156550   1.0000000
N2   N   0.444463591545877   0.388898462439603   0.125632111722111   1.0000000
N2   N   0.944461910347380   0.888886442763382   0.125140524816595   1.0000000
N2   N   0.777777517473251   0.388894856408400   0.125273202353658   1.0000000
N2   N   0.277794979373102   0.555566576752643   0.624578689040768   1.0000000
N2   N   0.111132794788319   0.055558413631663   0.624764742206739   1.0000000
N2   N   0.611093151138458   0.555558199439839   0.624303227016203   1.0000000
N2   N   0.444457290747853   0.055549680530945   0.624780038357294   1.0000000
N2   N   0.944443584069858   0.555562360459335   0.624801110731196   1.0000000
N2   N   0.111120373029916   0.555568087420857   0.125184860595128   1.0000000
N2   N   0.777808320304458   0.055570826818897   0.624903702646156   1.0000000
N2   N   0.277794979373102   0.055561735953795   0.125421310959232   1.0000000
N2   N   0.444463742034310   0.555580223018116   0.125774293419985   1.0000000
N2   N   0.777753075906709   0.555543204620021   0.125456756793729   1.0000000
N2   N   0.611128399585743   0.055559094444669   0.125079325156550   1.0000000
N2   N   0.444463742034310   0.555580223018116   0.624225706580015   1.0000000
N2   N   0.944476443073405   0.055565206255078   0.125121169835144   1.0000000
N2   N   0.277783458661134   0.722227136225362   0.624812076333698   1.0000000
N2   N   0.111137785861640   0.222235559597484   0.624712804090255   1.0000000
N2   N   0.444463742034310   0.222216852349532   0.624225706580015   1.0000000
N2   N   0.611120331977758   0.722238955772545   0.624735763263310   1.0000000
N2   N   0.944443584069858   0.722214556943859   0.624801110731196   1.0000000
N2   N   0.777800725781580   0.222237053695225   0.624895785752484   1.0000000
N2   N   0.111113131663348   0.722223232498338   0.125153605113301   1.0000000
N2   N   0.444457290747853   0.722240943550242   0.125219961642706   1.0000000
N2   N   0.277796152821675   0.222234588749784   0.125756378933213   1.0000000
N2   N   0.777777517473251   0.722215994398181   0.125273202353658   1.0000000
N2   N   0.611120331977758   0.222214709538543   0.125264236736690   1.0000000
N2   N   0.944476443073405   0.222244570151663   0.125121169835144   1.0000000
N2   N   0.111132794788319   0.388907714489985   0.624764742206739   1.0000000
N2   N   0.277783458661134   0.888889655769101   0.624812076333698   1.0000000
N2   N   0.611128399585743   0.888902638474401   0.624920674843450   1.0000000
N2   N   0.444463591545877   0.388898462439603   0.624367888277890   1.0000000
N2   N   0.944461910347380   0.888886442763382   0.624859475183404   1.0000000
N2   N   0.111120373029916   0.888885618942387   0.125184860595128   1.0000000
N2   N   0.777777517473251   0.388894856408400   0.624726797646343   1.0000000
N2   N   0.444456459555259   0.888894896444295   0.125107761012735   1.0000000
N2   N   0.277796152821675   0.388894897405219   0.125756378933213   1.0000000
N2   N   0.277794979373102   0.555566576752643   0.125421310959232   1.0000000
N2   N   0.611093151138458   0.388868285031948   0.125696772983798   1.0000000
N2   N   0.777800725781580   0.888897005419681   0.125104214247517   1.0000000
N2   N   0.944461910347380   0.388908800917327   0.125140524816595   1.0000000
N2   N   0.111120373029916   0.555568087420857   0.624815139404873   1.0000000
N2   N   0.277794979373102   0.055561735953795   0.624578689040768   1.0000000
N2   N   0.777753075906709   0.555543204620021   0.624543243206271   1.0000000
N2   N   0.611128399585743   0.055559094444669   0.624920674843450   1.0000000
N2   N   0.944476443073405   0.055565206255078   0.624878830164856   1.0000000
N2   N   0.057125077643215   0.112014866288462   0.375000000000000   1.0000000
N2   N   0.555938683442935   0.616641373743028   0.375000000000000   1.0000000
N2   N   0.388810288961124   0.109325776519923   0.375000000000000   1.0000000
N2   N   0.885852496127924   0.609592914730634   0.375000000000000   1.0000000
N2   N   0.723174619679830   0.111078362378284   0.375000000000000   1.0000000
N2   N   0.055549686256448   0.777777083690394   0.875000000000000   1.0000000
N2   N   0.388888293641444   0.777776876942623   0.875000000000000   1.0000000
N2   N   0.222217065549786   0.277775199441561   0.875000000000000   1.0000000
N2   N   0.722218216051869   0.777777501297689   0.875000000000000   1.0000000
N2   N   0.555551685821267   0.277776131430784   0.875000000000000   1.0000000
N2   N   0.888885474107488   0.277774950721234   0.875000000000000   1.0000000
N2   N   0.221097521958691   0.777215427646013   0.375000000000000   1.0000000
N2   N   0.057125077643215   0.278443544688090   0.375000000000000   1.0000000
N2   N   0.391504086523683   0.275194853795616   0.375000000000000   1.0000000
N2   N   0.555751632387746   0.780065073487310   0.375000000000000   1.0000000
N2   N   0.887745771741676   0.777336599675191   0.375000000000000   1.0000000
N2   N   0.722833773563759   0.276726291884364   0.375000000000000   1.0000000
N2   N   0.055549932243396   0.944444580996749   0.875000000000000   1.0000000
N2   N   0.388888293641444   0.944444750032155   0.875000000000000   1.0000000
N2   N   0.222217571216830   0.444439243314275   0.875000000000000   1.0000000
N2   N   0.555551996575772   0.444442664954550   0.875000000000000   1.0000000
N2   N   0.722217370356755   0.944443429206629   0.875000000000000   1.0000000
N2   N   0.888884834419589   0.444439963614456   0.875000000000000   1.0000000
N2   N   0.055863973671097   0.444437393976163   0.375000000000000   1.0000000
N2   N   0.221647346425273   0.943967361676177   0.375000000000000   1.0000000
N2   N   0.555690073458747   0.944511703396038   0.375000000000000   1.0000000
N2   N   0.391504086523683   0.449642566061403   0.375000000000000   1.0000000
N2   N   0.889912440118204   0.945353226983267   0.375000000000000   1.0000000
N2   N   0.718582313471088   0.442092388011697   0.375000000000000   1.0000000
N2   N   0.222218670339934   0.611105075969442   0.875000000000000   1.0000000
N2   N   0.055548249826381   0.111107909104261   0.875000000000000   1.0000000
N2   N   0.555551685821267   0.611108887723821   0.875000000000000   1.0000000
N2   N   0.388888044140955   0.111113866837291   0.875000000000000   1.0000000
N2   N   0.888881865186894   0.611107599260119   0.875000000000000   1.0000000
N2   N   0.054035452112841   0.610421862243866   0.375000000000000   1.0000000
N2   N   0.722217370356755   0.111107274483462   0.875000000000000   1.0000000
N2   N   0.224065693170470   0.112380461347435   0.375000000000000   1.0000000
N2   N   0.388810288961124   0.612817845774544   0.375000000000000   1.0000000
N2   N   0.718582313471088   0.609823258792727   0.375000000000000   1.0000000
N2   N   0.555751632387746   0.109019892233772   0.375000000000000   1.0000000
N2   N   0.388888044140955   0.611107510637006   0.875000000000000   1.0000000
N2   N   0.890327896250636   0.111830614791989   0.375000000000000   1.0000000
N2   N   0.222219094277473   0.777776213805405   0.875000000000000   1.0000000
N2   N   0.055548249826381   0.277773674055456   0.875000000000000   1.0000000
N2   N   0.388886297963517   0.277776581464016   0.875000000000000   1.0000000
N2   N   0.555552366852538   0.777777553367350   0.875000000000000   1.0000000
N2   N   0.888884834419589   0.777778204138470   0.875000000000000   1.0000000
N2   N   0.722218216051869   0.277774048087516   0.875000000000000   1.0000000
N2   N   0.054035452112841   0.776946923202310   0.375000000000000   1.0000000
N2   N   0.388300797411898   0.778098915653012   0.375000000000000   1.0000000
N2   N   0.224286024311750   0.278809678822543   0.375000000000000   1.0000000
N2   N   0.722833773563759   0.779440815012731   0.375000000000000   1.0000000
N2   N   0.555938683442935   0.272630643033243   0.375000000000000   1.0000000
N2   N   0.889912440118204   0.277892546468272   0.375000000000000   1.0000000
N2   N   0.055549932243396   0.444438684579976   0.875000000000000   1.0000000
N2   N   0.222218670339934   0.944446927703828   0.875000000000000   1.0000000
N2   N   0.555551820089282   0.944442576711306   0.875000000000000   1.0000000
N2   N   0.388886297963517   0.444443049832837   0.875000000000000   1.0000000
N2   N   0.888885474107488   0.944443856719590   0.875000000000000   1.0000000
N2   N   0.055863973671097   0.944759913028262   0.375000000000000   1.0000000
N2   N   0.722214805604558   0.444440243513918   0.875000000000000   1.0000000
N2   N   0.388300797411898   0.943535215092222   0.375000000000000   1.0000000
N2   N   0.224065693170470   0.445018565156370   0.375000000000000   1.0000000
N2   N   0.221647346425273   0.611013318082431   0.375000000000000   1.0000000
N2   N   0.723174619679830   0.945429590634882   0.375000000000000   1.0000000
N2   N   0.887745771741676   0.443742505399819   0.375000000000000   1.0000000
N2   N   0.055549686256448   0.611105935899388   0.875000000000000   1.0000000
N2   N   0.222217571216830   0.111111661235890   0.875000000000000   1.0000000
N2   N   0.722214805604558   0.611107895423976   0.875000000000000   1.0000000
N2   N   0.555552366852538   0.111108146818525   0.875000000000000   1.0000000
N2   N   0.888884275663009   0.111108804498176   0.875000000000000   1.0000000
B2   B   0.112011249106927   0.056041282689850   0.375000000000000   1.0000000
B2   B   0.607546246620611   0.560248264585937   0.375000000000000   1.0000000
B2   B   0.444687489444219   0.053859689632355   0.375000000000000   1.0000000
B2   B   0.942725947866188   0.554791559874797   0.375000000000000   1.0000000
B2   B   0.779187466853223   0.056260400093279   0.375000000000000   1.0000000
B2   B   0.111107499581076   0.722220416457203   0.875000000000000   1.0000000
B2   B   0.444444517210221   0.722236710150174   0.875000000000000   1.0000000
B2   B   0.277751227393625   0.222206279168334   0.875000000000000   1.0000000
B2   B   0.777788816859819   0.722242818851534   0.875000000000000   1.0000000
B2   B   0.611121487952477   0.222207101805687   0.875000000000000   1.0000000
B2   B   0.944429254363900   0.222211151188226   0.875000000000000   1.0000000
B2   B   0.277091052239310   0.722267995405861   0.375000000000000   1.0000000
B2   B   0.112205745268052   0.222769539300690   0.375000000000000   1.0000000
B2   B   0.446337157716948   0.219310523372012   0.375000000000000   1.0000000
B2   B   0.612569430228647   0.727099890405500   0.375000000000000   1.0000000
B2   B   0.942725947866188   0.721267721324726   0.375000000000000   1.0000000
B2   B   0.779067482270625   0.221865083740895   0.375000000000000   1.0000000
B2   B   0.111101109788693   0.888884301191891   0.875000000000000   1.0000000
B2   B   0.444446203037949   0.888889768185639   0.875000000000000   1.0000000
B2   B   0.277751227393625   0.388878281558620   0.875000000000000   1.0000000
B2   B   0.611122965430921   0.388882259747216   0.875000000000000   1.0000000
B2   B   0.777781217487723   0.888903232076768   0.875000000000000   1.0000000
B2   B   0.944440434432593   0.388879259007761   0.875000000000000   1.0000000
B2   B   0.112011249106927   0.389303299750406   0.375000000000000   1.0000000
B2   B   0.277091052239310   0.888156390166779   0.375000000000000   1.0000000
B2   B   0.612093830078597   0.890633486764116   0.375000000000000   1.0000000
B2   B   0.944490061033716   0.889037612615643   0.375000000000000   1.0000000
B2   B   0.776728639266923   0.387509713463443   0.375000000000000   1.0000000
B2   B   0.277763709498444   0.555556322880091   0.875000000000000   1.0000000
B2   B   0.111088803482448   0.055541793802744   0.875000000000000   1.0000000
B2   B   0.611122965430921   0.555574039017034   0.875000000000000   1.0000000
B2   B   0.444444517210221   0.055541140393383   0.875000000000000   1.0000000
B2   B   0.944448145716029   0.555553394398307   0.875000000000000   1.0000000
B2   B   0.110268200459276   0.555396474153962   0.375000000000000   1.0000000
B2   B   0.777776715506212   0.055555024419774   0.875000000000000   1.0000000
B2   B   0.277646932918450   0.054616960470949   0.375000000000000   1.0000000
B2   B   0.446337157716948   0.560359967678272   0.375000000000000   1.0000000
B2   B   0.774626446778527   0.553979890055931   0.375000000000000   1.0000000
B2   B   0.612093830078597   0.054793676647809   0.375000000000000   1.0000000
B2   B   0.444440510252536   0.555568770516446   0.875000000000000   1.0000000
B2   B   0.945702496005461   0.056343565193786   0.375000000000000   1.0000000
B2   B   0.277771304252444   0.722223562180510   0.875000000000000   1.0000000
B2   B   0.111081938966211   0.222207636149770   0.875000000000000   1.0000000
B2   B   0.444440510252536   0.222205073069426   0.875000000000000   1.0000000
B2   B   0.611121487952477   0.722247719480119   0.875000000000000   1.0000000
B2   B   0.944448145716029   0.722228084651059   0.875000000000000   1.0000000
B2   B   0.777781217487723   0.222211318744284   0.875000000000000   1.0000000
B2   B   0.109798264197197   0.721565798765263   0.375000000000000   1.0000000
B2   B   0.444687489444219   0.724161133145200   0.375000000000000   1.0000000
B2   B   0.279529071785147   0.223904854449939   0.375000000000000   1.0000000
B2   B   0.776728639266923   0.722552259136808   0.375000000000000   1.0000000
B2   B   0.612569430228647   0.218802873156477   0.375000000000000   1.0000000
B2   B   0.945702496005461   0.222692264145011   0.375000000000000   1.0000000
B2   B   0.111088803482448   0.388880343013033   0.875000000000000   1.0000000
B2   B   0.277771304252444   0.888881075405264   0.875000000000000   1.0000000
B2   B   0.611114869901011   0.888900959365399   0.875000000000000   1.0000000
B2   B   0.444434422399167   0.388883877866247   0.875000000000000   1.0000000
B2   B   0.944440434432593   0.888894508758158   0.875000000000000   1.0000000
B2   B   0.110268200459276   0.888205059638644   0.375000000000000   1.0000000
B2   B   0.777788816859819   0.388879331341615   0.875000000000000   1.0000000
B2   B   0.444444983809911   0.888889158571619   0.375000000000000   1.0000000
B2   B   0.279529071785147   0.388957550668536   0.375000000000000   1.0000000
B2   B   0.277646932918450   0.556363305780835   0.375000000000000   1.0000000
B2   B   0.607546246620611   0.380631315368002   0.375000000000000   1.0000000
B2   B   0.779067482270625   0.890535731863060   0.375000000000000   1.0000000
B2   B   0.944490061033716   0.388785781751405   0.375000000000000   1.0000000
B2   B   0.111101109788693   0.555550141930130   0.875000000000000   1.0000000
B2   B   0.277763709498444   0.055540719951688   0.875000000000000   1.0000000
B2   B   0.777791033041786   0.555562183187560   0.875000000000000   1.0000000
B2   B   0.611114869901011   0.055547243868941   0.875000000000000   1.0000000
B2   B   0.944429254363900   0.055551436509010   0.875000000000000   1.0000000
B2   B   0.055539002450497   0.111084897905958   0.124913508281671   1.0000000
B2   B   0.555571988417218   0.611200637283340   0.125067398838785   1.0000000
B2   B   0.388881140622448   0.111026902775674   0.125085909399713   1.0000000
B2   B   0.888959457799803   0.611146395566573   0.124997510407496   1.0000000
B2   B   0.722254652569050   0.111111869367841   0.124854846567269   1.0000000
B2   B   0.055572742929133   0.777770022321891   0.625054468308255   1.0000000
B2   B   0.388877166169775   0.777809219036464   0.625085691567280   1.0000000
B2   B   0.222187502722470   0.277760418027903   0.624842044212821   1.0000000
B2   B   0.722277586142123   0.777847029286184   0.625107887451434   1.0000000
B2   B   0.555571988417218   0.277704684467213   0.624932601161216   1.0000000
B2   B   0.888919722358168   0.277796835530799   0.625118146528324   1.0000000
B2   B   0.222206246653808   0.777769789993572   0.124947206601451   1.0000000
B2   B   0.055539002450497   0.277787437877875   0.124913508281671   1.0000000
B2   B   0.388898018741040   0.277784987905349   0.125495781388829   1.0000000
B2   B   0.555569983688286   0.777851141409768   0.124865297135566   1.0000000
B2   B   0.888944601612756   0.777804983769049   0.124943782810751   1.0000000
B2   B   0.722277586142123   0.277763890189274   0.124892112548567   1.0000000
B2   B   0.055556049258650   0.944412881064594   0.625061772868034   1.0000000
B2   B   0.388877166169775   0.944401280466646   0.625085691567280   1.0000000
B2   B   0.222185455195631   0.444466880633522   0.624899777335946   1.0000000
B2   B   0.555518253918522   0.444425793625925   0.624812568964761   1.0000000
B2   B   0.722254652569050   0.944476116534544   0.625145153432732   1.0000000
B2   B   0.888944601612756   0.444472951177042   0.625056217189249   1.0000000
B2   B   0.055556049258650   0.444476501527385   0.124938227131966   1.0000000
B2   B   0.222197133623406   0.944378189940725   0.124986130716030   1.0000000
B2   B   0.555561290479577   0.944447311906452   0.124843359544296   1.0000000
B2   B   0.388898018741040   0.444446364169027   0.125495781388829   1.0000000
B2   B   0.888919722358168   0.944456220160706   0.124881853471676   1.0000000
B2   B   0.722299333514621   0.444456257483133   0.125049395232533   1.0000000
B2   B   0.222197133623406   0.611152277016016   0.625013869283968   1.0000000
B2   B   0.055539002450497   0.111084897905958   0.625086491718330   1.0000000
B2   B   0.555571988417218   0.611200637283340   0.624932601161216   1.0000000
B2   B   0.388881140622448   0.111026902775674   0.624914090600288   1.0000000
B2   B   0.888959457799803   0.611146395566573   0.625002489592504   1.0000000
B2   B   0.055572742929133   0.611136053940579   0.124945531691744   1.0000000
B2   B   0.722254652569050   0.111111869367841   0.625145153432732   1.0000000
B2   B   0.222185455195631   0.111051907895444   0.125100222664054   1.0000000
B2   B   0.388881140622448   0.611187571180118   0.125085909399713   1.0000000
B2   B   0.722299333514621   0.611176409364823   0.125049395232533   1.0000000
B2   B   0.555569983688286   0.111052175611855   0.124865297135566   1.0000000
B2   B   0.388881140622448   0.611187571180118   0.624914090600288   1.0000000
B2   B   0.888909645444358   0.111121489388850   0.124884440823141   1.0000000
B2   B   0.222206246653808   0.777769789993572   0.625052793398548   1.0000000
B2   B   0.055539002450497   0.277787437877875   0.625086491718330   1.0000000
B2   B   0.388898018741040   0.277784987905349   0.624504218611171   1.0000000
B2   B   0.555569983688286   0.777851141409768   0.625134702864435   1.0000000
B2   B   0.888944601612756   0.777804983769049   0.625056217189249   1.0000000
B2   B   0.722277586142123   0.277763890189274   0.625107887451434   1.0000000
B2   B   0.055572742929133   0.777770022321891   0.124945531691744   1.0000000
B2   B   0.388877166169775   0.777809219036464   0.124914308432720   1.0000000
B2   B   0.222187502722470   0.277760418027903   0.125157955787178   1.0000000
B2   B   0.722277586142123   0.777847029286184   0.124892112548567   1.0000000
B2   B   0.555571988417218   0.277704684467213   0.125067398838785   1.0000000
B2   B   0.888919722358168   0.277796835530799   0.124881853471676   1.0000000
B2   B   0.055556049258650   0.444476501527385   0.625061772868034   1.0000000
B2   B   0.222197133623406   0.944378189940725   0.625013869283968   1.0000000
B2   B   0.555561290479577   0.944447311906452   0.625156640455703   1.0000000
B2   B   0.388898018741040   0.444446364169027   0.624504218611171   1.0000000
B2   B   0.888919722358168   0.944456220160706   0.625118146528324   1.0000000
B2   B   0.055556049258650   0.944412881064594   0.124938227131966   1.0000000
B2   B   0.722299333514621   0.444456257483133   0.624950604767467   1.0000000
B2   B   0.388877166169775   0.944401280466646   0.124914308432720   1.0000000
B2   B   0.222185455195631   0.444466880633522   0.125100222664054   1.0000000
B2   B   0.222197133623406   0.611152277016016   0.124986130716030   1.0000000
B2   B   0.555518253918522   0.444425793625925   0.125187431035238   1.0000000
B2   B   0.722254652569050   0.944476116534544   0.124854846567269   1.0000000
B2   B   0.888944601612756   0.444472951177042   0.124943782810751   1.0000000
B2   B   0.055572742929133   0.611136053940579   0.625054468308255   1.0000000
B2   B   0.222185455195631   0.111051907895444   0.624899777335946   1.0000000
B2   B   0.722299333514621   0.611176409364823   0.624950604767467   1.0000000
B2   B   0.555569983688286   0.111052175611855   0.625134702864435   1.0000000
B2   B   0.888909645444358   0.111121489388850   0.625115559176858   1.0000000


