data_1
_audit_creation_method   'vasp2cif'
_cell_length_a    17.52789999999977
_cell_length_b    17.52789999999977
_cell_length_c    15.0
_cell_angle_alpha    90.0
_cell_angle_beta    90.0
_cell_angle_gamma    119.99999999999916

_symmetry_space_group_name_H-M    'P 1'
loop_
_atom_site_label
_atom_site_type_symbol
_atom_site_fract_x
_atom_site_fract_y
_atom_site_fract_z
_atom_site_occupancy
B2   B   0.904438276713805   0.952060898185102   0.111635890547548   1.0000000
B2   B   0.904924289790551   0.095076866152448   0.110983548307558   1.0000000
B2   B   0.905114697955126   0.237938488182852   0.110302210791737   1.0000000
B2   B   0.905181638634305   0.380823332188846   0.109623362915461   1.0000000
B2   B   0.905117416816840   0.523749511833937   0.109383518221972   1.0000000
B2   B   0.904271336153501   0.666508900081517   0.110537764692198   1.0000000
B2   B   0.903835470258870   0.808930902274175   0.111041760526317   1.0000000
B2   B   0.047440540958527   0.952561608842474   0.110166118795997   1.0000000
B2   B   0.047940297123924   0.095563180804159   0.111635886087550   1.0000000
B2   B   0.048054009828310   0.238308271396478   0.113014521666733   1.0000000
B2   B   0.047825760281952   0.381065206820258   0.113449834801842   1.0000000
B2   B   0.047540534546579   0.523984142897286   0.112054540706899   1.0000000
B2   B   0.047277631056693   0.666862275033905   0.110138249650593   1.0000000
B2   B   0.047210495693371   0.809663834290437   0.109543185949801   1.0000000
B2   B   0.190338444874554   0.952791882976641   0.109543185198800   1.0000000
B2   B   0.191071023229806   0.096166749632135   0.111041753160319   1.0000000
B2   B   0.191394582910459   0.239131709170305   0.114140704848475   1.0000000
B2   B   0.190799166834950   0.381568853211367   0.114839640519196   1.0000000
B2   B   0.189954606432271   0.524236791895861   0.115929471914107   1.0000000
B2   B   0.189972368079624   0.667095741814875   0.113311366180050   1.0000000
B2   B   0.190100399392753   0.809901641426294   0.110356641752456   1.0000000
B2   B   0.333139695331098   0.952724546000321   0.110138249463592   1.0000000
B2   B   0.333493380746519   0.095731039207488   0.110537771804198   1.0000000
B2   B   0.334879005206170   0.239964463924297   0.113350719674864   1.0000000
B2   B   0.334695434084434   0.383039127336632   0.107581383813315   1.0000000
B2   B   0.332184477529227   0.525062673446963   0.107596595240465   1.0000000
B2   B   0.332569499913115   0.667432391065920   0.113999026656989   1.0000000
B2   B   0.332905600607114   0.810029293587356   0.113311356630050   1.0000000
B2   B   0.476017208453730   0.952460812016391   0.112054532809898   1.0000000
B2   B   0.476252873257020   0.094884616935201   0.109383518800972   1.0000000
B2   B   0.476634276525983   0.237159953886901   0.112581004563929   1.0000000
B2   B   0.478993554356379   0.380203161373465   0.123419115362074   1.0000000
B2   B   0.474939640843055   0.667817747302748   0.107596591664460   1.0000000
B2   B   0.475764424929138   0.810047555831706   0.115929471704106   1.0000000
B2   B   0.618936396527781   0.952175691365046   0.113449843941843   1.0000000
B2   B   0.619178408994166   0.094819709702718   0.109623362576461   1.0000000
B2   B   0.619503103574921   0.237346663741406   0.109562800177676   1.0000000
B2   B   0.620238186761490   0.379763933891562   0.115815014310056   1.0000000
B2   B   0.619798571080572   0.521007249189578   0.123419123001069   1.0000000
B2   B   0.616962336443391   0.665305335264544   0.107581379526312   1.0000000
B2   B   0.618432549060657   0.809202269961047   0.114839646549196   1.0000000
B2   B   0.761693127103578   0.951946967122746   0.113014530232738   1.0000000
B2   B   0.762063072182094   0.094886606769804   0.110302213677741   1.0000000
B2   B   0.762318502146438   0.237682970192581   0.108678666431302   1.0000000
B2   B   0.762655177730584   0.380498692056086   0.109562802226675   1.0000000
B2   B   0.762842822914115   0.523367810828005   0.112581006230926   1.0000000
B2   B   0.760037515541739   0.665122485507852   0.113350726854862   1.0000000
B2   B   0.760869845304683   0.808606411037541   0.114140710475476   1.0000000
N2   N   0.951947580059432   0.904406974739266   0.110761568407792   1.0000000
N2   N   0.952514027089316   0.047487141741706   0.111047345915277   1.0000000
N2   N   0.952730123949230   0.190379509684355   0.111108150861222   1.0000000
N2   N   0.952657622462572   0.333197847692082   0.110876392184528   1.0000000
N2   N   0.952500130007384   0.476101442953262   0.109797403137622   1.0000000
N2   N   0.952043883271547   0.619011400564877   0.109573398340905   1.0000000
N2   N   0.951825220869739   0.761723427627486   0.110102741939050   1.0000000
N2   N   0.095023563886370   0.904978775362648   0.109444921409181   1.0000000
N2   N   0.095594945684742   0.048054534620571   0.110761562561788   1.0000000
N2   N   0.095918306818471   0.190945255758614   0.113369268488748   1.0000000
N2   N   0.095506767685639   0.333515674603870   0.114443902118936   1.0000000
N2   N   0.094908561902592   0.476321787715339   0.114613238344884   1.0000000
N2   N   0.094811363621313   0.619268271902373   0.111720931315688   1.0000000
N2   N   0.094836202721045   0.762128261182410   0.109655197793175   1.0000000
N2   N   0.237873815058607   0.905166003682939   0.109655199610175   1.0000000
N2   N   0.238278869325549   0.048177298465254   0.110102733184048   1.0000000
N2   N   0.239371869244658   0.191808785892908   0.112476401881508   1.0000000
N2   N   0.239224781345970   0.334481373382945   0.114452046616663   1.0000000
N2   N   0.237347932013750   0.476677986334684   0.115843513049734   1.0000000
N2   N   0.237414522991490   0.619545833031030   0.115342308772569   1.0000000
N2   N   0.237647565440779   0.762353951055191   0.112174462227536   1.0000000
N2   N   0.380733231236601   0.905190421419673   0.111720916627689   1.0000000
N2   N   0.380990937268139   0.047958559048428   0.109573407869901   1.0000000
N2   N   0.381532374349397   0.191141164098753   0.112382249813994   1.0000000
N2   N   0.383814516653653   0.336280392063422   0.114937542651306   1.0000000
N2   N   0.377961673578186   0.477262695347639   0.092924857615808   1.0000000
N2   N   0.379924971069402   0.620077316766650   0.109176187036562   1.0000000
N2   N   0.380455550669915   0.762587268972550   0.115342302381571   1.0000000
N2   N   0.523679869591679   0.905093296900400   0.114613243270885   1.0000000
N2   N   0.523900347825756   0.047500841491637   0.109797393307619   1.0000000
N2   N   0.524233740539708   0.189916891342505   0.109619193547360   1.0000000
N2   N   0.524987308691066   0.331941488002894   0.117320812336782   1.0000000
N2   N   0.522738996069395   0.622039449847792   0.092924844808810   1.0000000
N2   N   0.523323663040316   0.762654790843197   0.115843517646740   1.0000000
N2   N   0.666485766704137   0.904494369027347   0.114443916001939   1.0000000
N2   N   0.666803818201967   0.047343851911493   0.110876399178528   1.0000000
N2   N   0.667064467908356   0.189977919624709   0.108554817161059   1.0000000
N2   N   0.667485501498535   0.332516076743458   0.111028570678234   1.0000000
N2   N   0.668061285047115   0.475014455127915   0.117320819779781   1.0000000
N2   N   0.663721374833584   0.616186837009362   0.114937553916307   1.0000000
N2   N   0.665519838872074   0.760776062538006   0.114452046490663   1.0000000
N2   N   0.809056066382414   0.904082589378534   0.113369276800748   1.0000000
N2   N   0.809621698659661   0.047270855234820   0.111108154011221   1.0000000
N2   N   0.809860481492798   0.190140857523247   0.109187731350338   1.0000000
N2   N   0.810023555833295   0.332936974444622   0.108554815820060   1.0000000
N2   N   0.810085646277465   0.475768034497340   0.109619196561362   1.0000000
N2   N   0.808861245538293   0.618469725842574   0.112382244595996   1.0000000
N2   N   0.808193177865066   0.760629773653320   0.112476411687510   1.0000000
O2   O   0.529769101010778   0.470231963835191   0.138223638981732   1.0000000
S2   S   0.473414329420554   0.526586438106397   0.023850928270656   1.0000000


