data_1
_audit_creation_method   'vasp2cif'
_cell_length_a    17.52789999999977
_cell_length_b    17.52789999999977
_cell_length_c    15.0
_cell_angle_alpha    90.0
_cell_angle_beta    90.0
_cell_angle_gamma    119.99999999999916

_symmetry_space_group_name_H-M    'P 1'
loop_
_atom_site_label
_atom_site_type_symbol
_atom_site_fract_x
_atom_site_fract_y
_atom_site_fract_z
_atom_site_occupancy
S2   S   0.404612326997013   0.488021366122505   0.111350768437601   1.0000000
B2   B   0.905414651198755   0.952853444189034   0.111016116622958   1.0000000
B2   B   0.906170782046263   0.096146404036763   0.111051045708909   1.0000000
B2   B   0.906436167981049   0.238932430836025   0.111093050065489   1.0000000
B2   B   0.906170782046263   0.381453071700504   0.111051045708909   1.0000000
B2   B   0.905414651198755   0.523991612257724   0.111016116622958   1.0000000
B2   B   0.904655658322758   0.666625363871525   0.111059168001882   1.0000000
B2   B   0.904655658322758   0.809460699699214   0.111059168001882   1.0000000
B2   B   0.047386778455521   0.951889413631115   0.111018431165553   1.0000000
B2   B   0.048106570444563   0.095043293172475   0.111024228378954   1.0000000
B2   B   0.049244469768930   0.238849129654913   0.111041011552740   1.0000000
B2   B   0.049244469768930   0.381825745361012   0.111041011552740   1.0000000
B2   B   0.048106570444562   0.524493682520081   0.111024228378954   1.0000000
B2   B   0.047386778455521   0.666929481628406   0.111018431165553   1.0000000
B2   B   0.047241251841689   0.809336684322849   0.110994249627764   1.0000000
B2   B   0.190069549792249   0.951700860877450   0.111007584830813   1.0000000
B2   B   0.190087004177416   0.093712740820690   0.111066674236469   1.0000000
B2   B   0.190699455665130   0.236688449272128   0.110997646895351   1.0000000
B2   B   0.192677188343509   0.382053796795258   0.110988986186834   1.0000000
B2   B   0.190699455665130   0.525441411640998   0.110997646895351   1.0000000
B2   B   0.190087004177415   0.667804668604728   0.111066674236469   1.0000000
B2   B   0.190069549792249   0.809800805718814   0.111007584830813   1.0000000
B2   B   0.333285035651500   0.952358576227256   0.111027493480010   1.0000000
B2   B   0.333261255721327   0.093264749040590   0.111083979640744   1.0000000
B2   B   0.332920058403979   0.233371539325923   0.111041317204462   1.0000000
B2   B   0.332772374207618   0.372515349231904   0.111064309776185   1.0000000
B2   B   0.332772374207621   0.531687430222718   0.111064309776185   1.0000000
B2   B   0.332920058403979   0.670978924325049   0.111041317204462   1.0000000
B2   B   0.333261255721325   0.811426911927721   0.111083979640744   1.0000000
B2   B   0.476871068886319   0.953626251680307   0.111031352977131   1.0000000
B2   B   0.476871068886319   0.094675222453014   0.111031352977131   1.0000000
B2   B   0.476908417936951   0.235596442005257   0.111057234309788   1.0000000
B2   B   0.476222498935345   0.375716697128364   0.110924681130234   1.0000000
B2   B   0.476222498935345   0.671936207053970   0.110924681130234   1.0000000
B2   B   0.476908417936951   0.812742381178701   0.111057234309788   1.0000000
B2   B   0.620409381621300   0.954033957637369   0.111021386370709   1.0000000
B2   B   0.620341289845360   0.095884991768176   0.111010114368205   1.0000000
B2   B   0.620409381621300   0.237805829230921   0.111021386370709   1.0000000
B2   B   0.620453175568368   0.380008746263034   0.111020443805878   1.0000000
B2   B   0.620555464219977   0.523889450327331   0.110960512232967   1.0000000
B2   B   0.620555464219982   0.668096419140656   0.110960512232967   1.0000000
B2   B   0.620453175568368   0.811874834552349   0.111020443805878   1.0000000
B2   B   0.763267808407662   0.953744887806657   0.111012762276936   1.0000000
B2   B   0.763459944029731   0.096290615893500   0.111040059612106   1.0000000
B2   B   0.763459944029731   0.238598021827218   0.111040059612106   1.0000000
B2   B   0.763267808407662   0.380953325847972   0.111012762276936   1.0000000
B2   B   0.762845797020892   0.523649257625660   0.111046024626148   1.0000000
B2   B   0.761911319351529   0.666670862299757   0.111094709456782   1.0000000
B2   B   0.762845797020892   0.810626944643225   0.111046024626148   1.0000000
N2   N   0.952409147221151   0.904703684592837   0.111016723283783   1.0000000
N2   N   0.953208651998258   0.048058240564165   0.111004088557190   1.0000000
N2   N   0.954130264846043   0.191447380542266   0.111051007182004   1.0000000
N2   N   0.954130264846043   0.334109866421771   0.111051007182005   1.0000000
N2   N   0.953208651998255   0.476577393552096   0.111004088557190   1.0000000
N2   N   0.952409147221148   0.619134156303300   0.111016723283783   1.0000000
N2   N   0.952185240234955   0.761806966954979   0.111030542001619   1.0000000
N2   N   0.094947833740154   0.904381778841222   0.110975769137907   1.0000000
N2   N   0.095145698088188   0.046973191307098   0.111017479234228   1.0000000
N2   N   0.095964280819487   0.190320506165281   0.111005895885041   1.0000000
N2   N   0.097414274041047   0.334421483857525   0.111006363441859   1.0000000
N2   N   0.095964280819487   0.477072468328207   0.111005895885041   1.0000000
N2   N   0.095145698088189   0.619601200456101   0.111017479234228   1.0000000
N2   N   0.094947833740154   0.761996460129942   0.110975769137907   1.0000000
N2   N   0.237978441625253   0.904704423428129   0.110986839743178   1.0000000
N2   N   0.237963541687758   0.046538812974619   0.111046625684657   1.0000000
N2   N   0.237873230734713   0.188560189238323   0.111043431878665   1.0000000
N2   N   0.238864030215100   0.332297568454318   0.110962177463617   1.0000000
N2   N   0.238864030215099   0.477995155434773   0.110962177463617   1.0000000
N2   N   0.237873230734713   0.620741735171374   0.111043431878665   1.0000000
N2   N   0.237963541687758   0.762853422388128   0.111046625684657   1.0000000
N2   N   0.381466981156022   0.905983955623096   0.111030697996221   1.0000000
N2   N   0.381466981156032   0.046911719207933   0.111030697996221   1.0000000
N2   N   0.381430299881769   0.187588946954201   0.111060114218700   1.0000000
N2   N   0.380846488054047   0.327152358655375   0.110971644404889   1.0000000
N2   N   0.380846488054047   0.625122823073659   0.110971644404889   1.0000000
N2   N   0.381430299881769   0.765270046602566   0.111060114218700   1.0000000
N2   N   0.525092362057066   0.907182525080822   0.111026484072183   1.0000000
N2   N   0.525029690899920   0.048228336509458   0.110992997002109   1.0000000
N2   N   0.525092362057066   0.189338530651258   0.111026484072183   1.0000000
N2   N   0.525251269070045   0.330059842725352   0.111013184000938   1.0000000
N2   N   0.528740773507300   0.467817206047801   0.110713000822810   1.0000000
N2   N   0.528740773507303   0.632352261134495   0.110713000822810   1.0000000
N2   N   0.525251269070045   0.766620120019689   0.111013184000938   1.0000000
N2   N   0.668237100339393   0.906819785841330   0.111005589832601   1.0000000
N2   N   0.668286020066790   0.048903418878182   0.111001317943765   1.0000000
N2   N   0.668286020066792   0.190809583307604   0.111001317943765   1.0000000
N2   N   0.668237100339393   0.332846008173064   0.111005589832601   1.0000000
N2   N   0.668079298142913   0.475383105253367   0.111014707052593   1.0000000
N2   N   0.666803460273422   0.619116076974714   0.111049624103562   1.0000000
N2   N   0.668079298142911   0.764124886564544   0.111014707052593   1.0000000
N2   N   0.810495394467828   0.905807164497467   0.111003820330823   1.0000000
N2   N   0.811103870534045   0.048860709811051   0.111020885120933   1.0000000
N2   N   0.811300407013976   0.191363694565992   0.111052637625137   1.0000000
N2   N   0.811103870534045   0.333670142841003   0.111020885120933   1.0000000
N2   N   0.810495394467828   0.476116923644355   0.111003820330823   1.0000000
N2   N   0.809638628732304   0.618966846897640   0.111062273608451   1.0000000
N2   N   0.809638628732311   0.762100475509668   0.111062273608451   1.0000000


