data_1
_audit_creation_method   'vasp2cif'
_cell_length_a    14.93631414619966
_cell_length_b    14.936314146199727
_cell_length_c    13.341276283792837
_cell_angle_alpha    90.0
_cell_angle_beta    90.0
_cell_angle_gamma    119.99999999999984

_symmetry_space_group_name_H-M    'P 1'
loop_
_atom_site_label
_atom_site_type_symbol
_atom_site_fract_x
_atom_site_fract_y
_atom_site_fract_z
_atom_site_occupancy
Sn2   Sn   0.496318871005053   0.414826102169188   0.375000000000000   1.0000000
N2   N   0.111420339294452   0.055699458133028   0.124894507675072   1.0000000
N2   N   0.611467770598900   0.555805556906701   0.124042573432037   1.0000000
N2   N   0.444747722810154   0.055668869983049   0.124770076741803   1.0000000
N2   N   0.944720894747910   0.555692822189843   0.124995291931139   1.0000000
N2   N   0.778104649183851   0.055718991258593   0.124950241094378   1.0000000
N2   N   0.111385294155833   0.722359313744578   0.624910709965533   1.0000000
N2   N   0.444747722810154   0.722412186160441   0.625229923258197   1.0000000
N2   N   0.278099761505301   0.222360508645708   0.624377687480397   1.0000000
N2   N   0.778092300698502   0.722408674315034   0.625525037996854   1.0000000
N2   N   0.611413545044238   0.222321882108105   0.625593101513181   1.0000000
N2   N   0.944771708875128   0.222385316872116   0.625057118461222   1.0000000
N2   N   0.278066427642612   0.722378089813842   0.125006088625085   1.0000000
N2   N   0.111451860838979   0.222392597086150   0.125027648549449   1.0000000
N2   N   0.444764652384839   0.222326565073760   0.125188856388170   1.0000000
N2   N   0.611413545044238   0.722424996269460   0.124406898486818   1.0000000
N2   N   0.944720894747910   0.722361405891410   0.124995291931139   1.0000000
N2   N   0.778092076295016   0.222362774050654   0.124809900825754   1.0000000
N2   N   0.111395546164153   0.889022161324123   0.624972819274077   1.0000000
N2   N   0.444749240236007   0.889041286784671   0.625032018754306   1.0000000
N2   N   0.278099761505301   0.389072586192922   0.624377687480397   1.0000000
N2   N   0.611467770598900   0.388995547025528   0.625957426567962   1.0000000
N2   N   0.778092076295016   0.889062635577689   0.625190099174245   1.0000000
N2   N   0.944750395461027   0.389035432460710   0.625054978371941   1.0000000
N2   N   0.111420339294452   0.389054214494753   0.124894507675072   1.0000000
N2   N   0.278066427642612   0.889021671162099   0.125006088625085   1.0000000
N2   N   0.611427294297775   0.889067334462499   0.124856043206971   1.0000000
N2   N   0.444887205996992   0.389110269665164   0.129448297385545   1.0000000
N2   N   0.944750395461027   0.889048296333639   0.124945021628060   1.0000000
N2   N   0.778092300698502   0.389016959716799   0.124474962003146   1.0000000
N2   N   0.278078527483494   0.555732076382805   0.625017578034234   1.0000000
N2   N   0.111420339294452   0.055699458133028   0.625105492324928   1.0000000
N2   N   0.611467770598900   0.555805556906701   0.625957426567962   1.0000000
N2   N   0.444747722810154   0.055668869983049   0.625229923258197   1.0000000
N2   N   0.944720894747910   0.555692822189843   0.625004708068862   1.0000000
N2   N   0.111395546164153   0.555706718173367   0.125027180725923   1.0000000
N2   N   0.778104649183851   0.055718991258593   0.625049758905623   1.0000000
N2   N   0.278078527483494   0.055679784434026   0.124982421965765   1.0000000
N2   N   0.444764652384839   0.555771420644421   0.125188856388170   1.0000000
N2   N   0.778053793102745   0.555693563218036   0.124426107592678   1.0000000
N2   N   0.611427294297775   0.055693293168605   0.124856043206971   1.0000000
N2   N   0.444764652384839   0.555771420644421   0.624811143611831   1.0000000
N2   N   0.944771708875128   0.055719725336339   0.124942881538778   1.0000000
N2   N   0.278066427642612   0.722378089813842   0.624993911374915   1.0000000
N2   N   0.111451860838979   0.222392597086150   0.624972351450550   1.0000000
N2   N   0.444764652384839   0.222326565073760   0.624811143611831   1.0000000
N2   N   0.611413545044238   0.722424996269460   0.625593101513181   1.0000000
N2   N   0.944720894747910   0.722361405891410   0.625004708068862   1.0000000
N2   N   0.778092076295016   0.222362774050654   0.625190099174245   1.0000000
N2   N   0.111385294155833   0.722359313744578   0.125089290034468   1.0000000
N2   N   0.444747722810154   0.722412186160441   0.124770076741803   1.0000000
N2   N   0.278099761505301   0.222360508645708   0.125622312519603   1.0000000
N2   N   0.778092300698502   0.722408674315034   0.124474962003146   1.0000000
N2   N   0.611413545044238   0.222321882108105   0.124406898486818   1.0000000
N2   N   0.944771708875128   0.222385316872116   0.124942881538778   1.0000000
N2   N   0.111420339294452   0.389054214494753   0.625105492324928   1.0000000
N2   N   0.278066427642612   0.889021671162099   0.624993911374915   1.0000000
N2   N   0.611427294297775   0.889067334462499   0.625143956793027   1.0000000
N2   N   0.444887205996992   0.389110269665164   0.620551702614456   1.0000000
N2   N   0.944750395461027   0.889048296333639   0.625054978371941   1.0000000
N2   N   0.111395546164153   0.889022161324123   0.125027180725923   1.0000000
N2   N   0.778092300698502   0.389016959716799   0.625525037996854   1.0000000
N2   N   0.444749240236007   0.889041286784671   0.124967981245694   1.0000000
N2   N   0.278099761505301   0.389072586192922   0.125622312519603   1.0000000
N2   N   0.278078527483494   0.555732076382805   0.124982421965765   1.0000000
N2   N   0.611467770598900   0.388995547025528   0.124042573432037   1.0000000
N2   N   0.778092076295016   0.889062635577689   0.124809900825754   1.0000000
N2   N   0.944750395461027   0.389035432460710   0.124945021628060   1.0000000
N2   N   0.111395546164153   0.555706718173367   0.624972819274077   1.0000000
N2   N   0.278078527483494   0.055679784434026   0.625017578034234   1.0000000
N2   N   0.778053793102745   0.555693563218036   0.625573892407322   1.0000000
N2   N   0.611427294297775   0.055693293168605   0.625143956793027   1.0000000
N2   N   0.944771708875128   0.055719725336339   0.625057118461222   1.0000000
N2   N   0.056917694359114   0.111978355239297   0.375000000000000   1.0000000
N2   N   0.554308382760128   0.624352581167068   0.375000000000000   1.0000000
N2   N   0.385389215176945   0.102071617652738   0.375000000000000   1.0000000
N2   N   0.882674263847432   0.608003798590391   0.375000000000000   1.0000000
N2   N   0.722853971812710   0.109993036847435   0.375000000000000   1.0000000
N2   N   0.055661107799676   0.777832208097887   0.875000000000000   1.0000000
N2   N   0.388996131796313   0.777830436312278   0.875000000000000   1.0000000
N2   N   0.222332686096176   0.277833009714756   0.875000000000000   1.0000000
N2   N   0.722328835484771   0.777831444835568   0.875000000000000   1.0000000
N2   N   0.555658213195236   0.277828885073640   0.875000000000000   1.0000000
N2   N   0.888998032327463   0.277832200250690   0.875000000000000   1.0000000
N2   N   0.217838511495773   0.775585922414555   0.375000000000000   1.0000000
N2   N   0.056917694359114   0.278272672453146   0.375000000000000   1.0000000
N2   N   0.386427422539375   0.264655722612176   0.375000000000000   1.0000000
N2   N   0.554176117413344   0.783317877331838   0.375000000000000   1.0000000
N2   N   0.887172275008019   0.778063892247931   0.375000000000000   1.0000000
N2   N   0.722534383240594   0.274123670854656   0.375000000000000   1.0000000
N2   N   0.055662469080283   0.944500089362484   0.875000000000000   1.0000000
N2   N   0.388996131796313   0.944499028817371   0.875000000000000   1.0000000
N2   N   0.222330731284556   0.444492899454686   0.875000000000000   1.0000000
N2   N   0.555645038397997   0.444489185865663   0.875000000000000   1.0000000
N2   N   0.722327916485316   0.944497741086858   0.875000000000000   1.0000000
N2   N   0.888998201036345   0.444497437260625   0.875000000000000   1.0000000
N2   N   0.053872090505073   0.443984291536122   0.375000000000000   1.0000000
N2   N   0.218257029331825   0.940522539956764   0.375000000000000   1.0000000
N2   N   0.554185723030853   0.943759528182091   0.375000000000000   1.0000000
N2   N   0.386427422539375   0.455105033260534   0.375000000000000   1.0000000
N2   N   0.889723042397445   0.946017461919146   0.375000000000000   1.0000000
N2   N   0.719270748777717   0.438940682152113   0.375000000000000   1.0000000
N2   N   0.222329377622302   0.611160274786337   0.875000000000000   1.0000000
N2   N   0.055662961601775   0.111165562466756   0.875000000000000   1.0000000
N2   N   0.555658213195236   0.611162661454931   0.875000000000000   1.0000000
N2   N   0.388998883608273   0.111172818957638   0.875000000000000   1.0000000
N2   N   0.888993509408587   0.611163421370962   0.875000000000000   1.0000000
N2   N   0.050976618313831   0.609295704874785   0.375000000000000   1.0000000
N2   N   0.722327916485316   0.111163508731796   0.875000000000000   1.0000000
N2   N   0.220329154491044   0.107910360749025   0.375000000000000   1.0000000
N2   N   0.385389215176945   0.616650930857550   0.375000000000000   1.0000000
N2   N   0.719270748777717   0.613663399958937   0.375000000000000   1.0000000
N2   N   0.554176117413344   0.104191573414842   0.375000000000000   1.0000000
N2   N   0.388998883608273   0.611159397983979   0.875000000000000   1.0000000
N2   N   0.890333598251112   0.111833465792224   0.375000000000000   1.0000000
N2   N   0.222328518356931   0.777830925845129   0.875000000000000   1.0000000
N2   N   0.055662961601775   0.277830732468355   0.875000000000000   1.0000000
N2   N   0.389001710478549   0.277845212566012   0.875000000000000   1.0000000
N2   N   0.555660404037369   0.777831570103667   0.875000000000000   1.0000000
N2   N   0.888998201036345   0.777834097109062   0.875000000000000   1.0000000
N2   N   0.722328835484771   0.277830723982532   0.875000000000000   1.0000000
N2   N   0.050976618313831   0.775014246772374   0.375000000000000   1.0000000
N2   N   0.385517533795686   0.778420220892213   0.375000000000000   1.0000000
N2   N   0.225061534328137   0.279197433830740   0.375000000000000   1.0000000
N2   N   0.722534383240594   0.781744045719274   0.375000000000000   1.0000000
N2   N   0.554308382760128   0.263289134926404   0.375000000000000   1.0000000
N2   N   0.889723042397445   0.277038913811643   0.375000000000000   1.0000000
N2   N   0.055662469080283   0.444495713051127   0.875000000000000   1.0000000
N2   N   0.222329377622302   0.944502436169300   0.875000000000000   1.0000000
N2   N   0.555659296526473   0.944496314929898   0.875000000000000   1.0000000
N2   N   0.389001710478549   0.444489831245873   0.875000000000000   1.0000000
N2   N   0.888998032327463   0.944499165410110   0.875000000000000   1.0000000
N2   N   0.053872090505073   0.943221132302280   0.375000000000000   1.0000000
N2   N   0.722326046536922   0.444495647793629   0.875000000000000   1.0000000
N2   N   0.385517533795686   0.940430646236801   0.375000000000000   1.0000000
N2   N   0.220329154491044   0.445752127075354   0.375000000000000   1.0000000
N2   N   0.218257029331825   0.611067822708396   0.375000000000000   1.0000000
N2   N   0.722853971812710   0.946194268298603   0.375000000000000   1.0000000
N2   N   0.887172275008019   0.442441716093423   0.375000000000000   1.0000000
N2   N   0.055661107799676   0.611162233035125   0.875000000000000   1.0000000
N2   N   0.222330731284556   0.111171165163200   0.875000000000000   1.0000000
N2   N   0.722326046536922   0.611163732076634   0.875000000000000   1.0000000
N2   N   0.555660404037369   0.111162167267037   0.875000000000000   1.0000000
N2   N   0.888997257028154   0.111165295180748   0.875000000000000   1.0000000
B2   B   0.110235072878170   0.054293303777322   0.375000000000000   1.0000000
B2   B   0.610793749177132   0.573738653089346   0.375000000000000   1.0000000
B2   B   0.442615872670867   0.049710550758282   0.375000000000000   1.0000000
B2   B   0.939954198371002   0.553426503050426   0.375000000000000   1.0000000
B2   B   0.779433526479745   0.056383429906537   0.375000000000000   1.0000000
B2   B   0.111218170561840   0.722275751947588   0.875000000000000   1.0000000
B2   B   0.444548472143548   0.722274753440203   0.875000000000000   1.0000000
B2   B   0.277867762684096   0.222271316660445   0.875000000000000   1.0000000
B2   B   0.777892858489906   0.722288526406261   0.875000000000000   1.0000000
B2   B   0.611219678923370   0.222266616622659   0.875000000000000   1.0000000
B2   B   0.944557250482725   0.222275265214042   0.875000000000000   1.0000000
B2   B   0.274262222543803   0.721632535613290   0.375000000000000   1.0000000
B2   B   0.113779720315616   0.223556526824476   0.375000000000000   1.0000000
B2   B   0.441020844449546   0.210715755128211   0.375000000000000   1.0000000
B2   B   0.611793280174559   0.732249477036321   0.375000000000000   1.0000000
B2   B   0.939954198371002   0.719861028653911   0.375000000000000   1.0000000
B2   B   0.779105231017930   0.220487950595199   0.375000000000000   1.0000000
B2   B   0.111218081022307   0.888949247171277   0.875000000000000   1.0000000
B2   B   0.444549874159215   0.888941603746274   0.875000000000000   1.0000000
B2   B   0.277867762684096   0.388929779356980   0.875000000000000   1.0000000
B2   B   0.611223320407330   0.388925043589092   0.875000000000000   1.0000000
B2   B   0.777892680460084   0.888953637043360   0.875000000000000   1.0000000
B2   B   0.944558655070095   0.388937942838485   0.875000000000000   1.0000000
B2   B   0.110235072878170   0.389275102434177   0.375000000000000   1.0000000
B2   B   0.274262222543803   0.885963020263849   0.375000000000000   1.0000000
B2   B   0.611585563419556   0.892089065711463   0.375000000000000   1.0000000
B2   B   0.943543647384575   0.889068257861540   0.375000000000000   1.0000000
B2   B   0.777014952478366   0.385363411201255   0.375000000000000   1.0000000
B2   B   0.277878492881079   0.555598686475167   0.875000000000000   1.0000000
B2   B   0.111216188499954   0.055614580456839   0.875000000000000   1.0000000
B2   B   0.611223320407330   0.555631610151566   0.875000000000000   1.0000000
B2   B   0.444548472143548   0.055607052036681   0.875000000000000   1.0000000
B2   B   0.944557496855158   0.555607755296370   0.875000000000000   1.0000000
B2   B   0.107513879455371   0.554753167380484   0.375000000000000   1.0000000
B2   B   0.777891750236681   0.055612541785005   0.875000000000000   1.0000000
B2   B   0.274510293342156   0.050969691790927   0.375000000000000   1.0000000
B2   B   0.441020844449546   0.563638422654679   0.375000000000000   1.0000000
B2   B   0.770893819333395   0.552113576333365   0.375000000000000   1.0000000
B2   B   0.611585563419556   0.052829831041424   0.375000000000000   1.0000000
B2   B   0.444545606930789   0.555608757323424   0.875000000000000   1.0000000
B2   B   0.946153679815679   0.056942572428237   0.375000000000000   1.0000000
B2   B   0.277882013196463   0.722271118046395   0.875000000000000   1.0000000
B2   B   0.111213956460820   0.222273644897075   0.875000000000000   1.0000000
B2   B   0.444545606930789   0.222270182940701   0.875000000000000   1.0000000
B2   B   0.611219678923370   0.722286395634033   0.875000000000000   1.0000000
B2   B   0.944557496855158   0.722283074892125   0.875000000000000   1.0000000
B2   B   0.777892680460084   0.222272376750053   0.875000000000000   1.0000000
B2   B   0.106795911483655   0.720064622408496   0.375000000000000   1.0000000
B2   B   0.442615872670867   0.726238655245918   0.375000000000000   1.0000000
B2   B   0.278115024970687   0.219591937213154   0.375000000000000   1.0000000
B2   B   0.777014952478366   0.724984874610431   0.375000000000000   1.0000000
B2   B   0.611793280174559   0.212877136471571   0.375000000000000   1.0000000
B2   B   0.946153679815679   0.222544440720776   0.375000000000000   1.0000000
B2   B   0.111216188499954   0.388934941376444   0.875000000000000   1.0000000
B2   B   0.277882013196463   0.888944228483388   0.875000000000000   1.0000000
B2   B   0.611220477623715   0.888947559478862   0.875000000000000   1.0000000
B2   B   0.444522530805662   0.388927932069492   0.875000000000000   1.0000000
B2   B   0.944558655070095   0.888954045564938   0.875000000000000   1.0000000
B2   B   0.107513879455371   0.886094045408215   0.375000000000000   1.0000000
B2   B   0.777892858489906   0.388937665416973   0.875000000000000   1.0000000
B2   B   0.442666372524895   0.887999852929109   0.375000000000000   1.0000000
B2   B   0.278115024970687   0.391856421090854   0.375000000000000   1.0000000
B2   B   0.274510293342156   0.556873934884565   0.375000000000000   1.0000000
B2   B   0.610793749177132   0.370388429421115   0.375000000000000   1.0000000
B2   B   0.779105231017930   0.891950613756061   0.375000000000000   1.0000000
B2   B   0.943543647384575   0.387808722856370   0.375000000000000   1.0000000
B2   B   0.111218081022307   0.555602167184358   0.875000000000000   1.0000000
B2   B   0.277878492881079   0.055613139739247   0.875000000000000   1.0000000
B2   B   0.777889233047353   0.555611283190348   0.875000000000000   1.0000000
B2   B   0.611220477623715   0.055606251478182   0.875000000000000   1.0000000
B2   B   0.944557250482725   0.055615318602018   0.875000000000000   1.0000000
B2   B   0.055896050293769   0.111287618773294   0.125014772720702   1.0000000
B2   B   0.555837492242888   0.611363997042726   0.124522101810934   1.0000000
B2   B   0.389150550997543   0.111164726700076   0.124961127935284   1.0000000
B2   B   0.889207919047471   0.611270626190407   0.124804461833670   1.0000000
B2   B   0.722545230962934   0.111249807773878   0.124893462383975   1.0000000
B2   B   0.055855471856315   0.777933604094021   0.624936748609424   1.0000000
B2   B   0.389172565847301   0.777943662523084   0.625071510873763   1.0000000
B2   B   0.222546614593691   0.277939973963517   0.624349361567373   1.0000000
B2   B   0.722531546797903   0.777983381990417   0.625477828005196   1.0000000
B2   B   0.555837492242888   0.277806828533496   0.625477898189068   1.0000000
B2   B   0.889220095849071   0.277918385887545   0.625080168682667   1.0000000
B2   B   0.222506341166997   0.777919837250169   0.125049356271386   1.0000000
B2   B   0.055896050293769   0.277941764853811   0.125014772720702   1.0000000
B2   B   0.389047756328833   0.277630837727794   0.126988352783302   1.0000000
B2   B   0.555846557929842   0.777978849354798   0.124691128490276   1.0000000
B2   B   0.889218502169191   0.777974144485474   0.124809854217196   1.0000000
B2   B   0.722531546797903   0.277881498140821   0.124522171994804   1.0000000
B2   B   0.055874174784548   0.944618717828066   0.625020076982629   1.0000000
B2   B   0.389172565847301   0.944562236657547   0.625071510873763   1.0000000
B2   B   0.222520274800707   0.444611940709144   0.624812433235517   1.0000000
B2   B   0.556174799470372   0.444754066401850   0.624713777951843   1.0000000
B2   B   0.722545230962934   0.944628756522394   0.625106537616026   1.0000000
B2   B   0.889218502169191   0.444577691017055   0.625190145782805   1.0000000
B2   B   0.055874174784548   0.444588790289809   0.124979923017364   1.0000000
B2   B   0.222510563183680   0.944578936457150   0.125020110729855   1.0000000
B2   B   0.555861515088838   0.944597424211081   0.124920456166336   1.0000000
B2   B   0.389047756328833   0.444750251934376   0.126988352783302   1.0000000
B2   B   0.889220095849071   0.944635043294862   0.124919831317333   1.0000000
B2   B   0.722609499239584   0.444589945581229   0.124096507222754   1.0000000
B2   B   0.222510563183680   0.611264960059862   0.624979889270146   1.0000000
B2   B   0.055896050293769   0.111287618773294   0.624985227279298   1.0000000
B2   B   0.555837492242888   0.611363997042726   0.625477898189068   1.0000000
B2   B   0.389150550997543   0.111164726700076   0.625038872064718   1.0000000
B2   B   0.889207919047471   0.611270626190407   0.625195538166330   1.0000000
B2   B   0.055855471856315   0.611255201095636   0.125063251390576   1.0000000
B2   B   0.722545230962934   0.111249807773878   0.625106537616026   1.0000000
B2   B   0.222520274800707   0.111241667424899   0.125187566764481   1.0000000
B2   B   0.389150550997543   0.611319157630810   0.124961127935284   1.0000000
B2   B   0.722609499239584   0.611352886991691   0.124096507222754   1.0000000
B2   B   0.555846557929842   0.111201041908379   0.124691128490276   1.0000000
B2   B   0.389150550997543   0.611319157630810   0.625038872064718   1.0000000
B2   B   0.889227309456412   0.111280321394877   0.124982140589192   1.0000000
B2   B   0.222506341166997   0.777919837250169   0.624950643728613   1.0000000
B2   B   0.055896050293769   0.277941764853811   0.624985227279298   1.0000000
B2   B   0.389047756328833   0.277630837727794   0.623011647216699   1.0000000
B2   B   0.555846557929842   0.777978849354798   0.625308871509725   1.0000000
B2   B   0.889218502169191   0.777974144485474   0.625190145782805   1.0000000
B2   B   0.722531546797903   0.277881498140821   0.625477828005196   1.0000000
B2   B   0.055855471856315   0.777933604094021   0.125063251390576   1.0000000
B2   B   0.389172565847301   0.777943662523084   0.124928489126236   1.0000000
B2   B   0.222546614593691   0.277939973963517   0.125650638432627   1.0000000
B2   B   0.722531546797903   0.777983381990417   0.124522171994804   1.0000000
B2   B   0.555837492242888   0.277806828533496   0.124522101810934   1.0000000
B2   B   0.889220095849071   0.277918385887545   0.124919831317333   1.0000000
B2   B   0.055874174784548   0.444588790289809   0.625020076982629   1.0000000
B2   B   0.222510563183680   0.944578936457150   0.624979889270146   1.0000000
B2   B   0.555861515088838   0.944597424211081   0.625079543833665   1.0000000
B2   B   0.389047756328833   0.444750251934376   0.623011647216699   1.0000000
B2   B   0.889220095849071   0.944635043294862   0.625080168682667   1.0000000
B2   B   0.055874174784548   0.944618717828066   0.124979923017364   1.0000000
B2   B   0.722609499239584   0.444589945581229   0.625903492777246   1.0000000
B2   B   0.389172565847301   0.944562236657547   0.124928489126236   1.0000000
B2   B   0.222520274800707   0.444611940709144   0.125187566764481   1.0000000
B2   B   0.222510563183680   0.611264960059862   0.125020110729855   1.0000000
B2   B   0.556174799470372   0.444754066401850   0.125286222048158   1.0000000
B2   B   0.722545230962934   0.944628756522394   0.124893462383975   1.0000000
B2   B   0.889218502169191   0.444577691017055   0.124809854217196   1.0000000
B2   B   0.055855471856315   0.611255201095636   0.624936748609424   1.0000000
B2   B   0.222520274800707   0.111241667424899   0.624812433235517   1.0000000
B2   B   0.722609499239584   0.611352886991691   0.625903492777246   1.0000000
B2   B   0.555846557929842   0.111201041908379   0.625308871509725   1.0000000
B2   B   0.889227309456412   0.111280321394877   0.625017859410808   1.0000000


