data_1
_audit_creation_method   'vasp2cif'
_cell_length_a    17.5279
_cell_length_b    17.52789999999977
_cell_length_c    15.0
_cell_angle_alpha    90.0
_cell_angle_beta    90.0
_cell_angle_gamma    120.00000000000043

_symmetry_space_group_name_H-M    'P 1'
loop_
_atom_site_label
_atom_site_type_symbol
_atom_site_fract_x
_atom_site_fract_y
_atom_site_fract_z
_atom_site_occupancy
B2   B   0.904550845726700   0.952157057474928   0.111010236490056   1.0000000
B2   B   0.904596799429771   0.095113243998515   0.111035521595003   1.0000000
B2   B   0.904648543478211   0.238086754190318   0.111036050176817   1.0000000
B2   B   0.904515796917873   0.380948060113254   0.111003040734177   1.0000000
B2   B   0.904368454137875   0.523820634542694   0.111001086437136   1.0000000
B2   B   0.905293729913273   0.666940290253042   0.111050921242332   1.0000000
B2   B   0.904819582350753   0.809463053457289   0.111033894763778   1.0000000
B2   B   0.047340378491136   0.952086192352593   0.111009571009009   1.0000000
B2   B   0.047271391935519   0.094914087171723   0.111010159288239   1.0000000
B2   B   0.047614941264091   0.238079874559541   0.111003693317272   1.0000000
B2   B   0.047581290682798   0.380973868294217   0.111015039349135   1.0000000
B2   B   0.047239175353231   0.523789433988961   0.111013250257660   1.0000000
B2   B   0.047579439292446   0.666705994495805   0.111016360274681   1.0000000
B2   B   0.047692130633588   0.809564385378329   0.111000445604873   1.0000000
B2   B   0.190308850214523   0.952120895226668   0.111000045133596   1.0000000
B2   B   0.189950620786755   0.094505173774480   0.111043099489018   1.0000000
B2   B   0.190035209473416   0.237505292500809   0.111012976215938   1.0000000
B2   B   0.190941369571278   0.381136431526240   0.111001885101206   1.0000000
B2   B   0.190099478017487   0.523969295821826   0.111047310851557   1.0000000
B2   B   0.190203335652571   0.666836281154001   0.111042699352792   1.0000000
B2   B   0.190380134818216   0.809565971778884   0.111000295497067   1.0000000
B2   B   0.333329956241255   0.952288449284283   0.111017974340180   1.0000000
B2   B   0.333121880324509   0.094413232236207   0.111056277460316   1.0000000
B2   B   0.332544655227656   0.236029677373784   0.111030681063666   1.0000000
B2   B   0.333298749481518   0.378360576778367   0.110976403147367   1.0000000
B2   B   0.333247729272019   0.526081286595601   0.110980950869720   1.0000000
B2   B   0.333056479254841   0.667838458748929   0.111058297880940   1.0000000
B2   B   0.333272418944910   0.809971159537572   0.111049831600774   1.0000000
B2   B   0.476307541721624   0.952340147384429   0.111011970927609   1.0000000
B2   B   0.476292620312994   0.095033166639586   0.111002676354205   1.0000000
B2   B   0.475955540257656   0.237397592122799   0.111025379414074   1.0000000
B2   B   0.474760044283148   0.379152072686421   0.111100183681503   1.0000000
B2   B   0.475589099521096   0.666238788604947   0.111053160196873   1.0000000
B2   B   0.476179068676104   0.809455889386580   0.111053581856942   1.0000000
B2   B   0.619079539892426   0.952227761243580   0.111021351660817   1.0000000
B2   B   0.619132264680021   0.095418529128646   0.111002817571306   1.0000000
B2   B   0.618992096816986   0.238657227542594   0.111011838011227   1.0000000
B2   B   0.618264943762742   0.381850552626396   0.111009601793322   1.0000000
B2   B   0.619307602861372   0.665859438597987   0.111028009324657   1.0000000
B2   B   0.619019696340039   0.808977065825180   0.110999537263853   1.0000000
B2   B   0.761767453020513   0.952149465149936   0.111001311909510   1.0000000
B2   B   0.761826863721468   0.095190579895646   0.111039257887696   1.0000000
B2   B   0.761776979847706   0.238226689837991   0.111046579098103   1.0000000
B2   B   0.761618281926918   0.381200213756029   0.111012010350466   1.0000000
B2   B   0.761912326560859   0.524489934089932   0.111021567640394   1.0000000
B2   B   0.762941951574340   0.666882095870767   0.111040723971427   1.0000000
B2   B   0.761891041313382   0.809326373360862   0.110998284234412   1.0000000
C2   C   0.385417703984663   0.478505653180487   0.110866118474747   1.0000000
C2   C   0.480630495430959   0.525888606694474   0.111113433489855   1.0000000
C2   C   0.526683134133751   0.480756143077381   0.111288637889614   1.0000000
C2   C   0.621301366055233   0.525910689393415   0.111283855898964   1.0000000
N2   N   0.952081949055713   0.904474794391631   0.111003825728900   1.0000000
N2   N   0.952009196153974   0.047284016917301   0.111002881559871   1.0000000
N2   N   0.952202542162202   0.190371940891137   0.111015437485552   1.0000000
N2   N   0.952183392037412   0.333349839724438   0.111001526209683   1.0000000
N2   N   0.951873914617361   0.476179017957497   0.110980733362028   1.0000000
N2   N   0.952346071462902   0.619044347535674   0.111007994437472   1.0000000
N2   N   0.952471408454761   0.761980967477514   0.111017397722309   1.0000000
N2   N   0.095063475750852   0.904598108092962   0.110979284713140   1.0000000
N2   N   0.094730359169934   0.047087085944069   0.111004506352353   1.0000000
N2   N   0.094758149840933   0.189985084029029   0.110989750649904   1.0000000
N2   N   0.095364967151924   0.333428851736005   0.110989055120099   1.0000000
N2   N   0.094784948096391   0.476235732538536   0.111011040074322   1.0000000
N2   N   0.094944167674922   0.619069435767522   0.111009761857213   1.0000000
N2   N   0.095132943881574   0.761904519196639   0.110985982058989   1.0000000
N2   N   0.238048571861299   0.904693083292286   0.110987663381437   1.0000000
N2   N   0.237846895847111   0.047105874680156   0.111020796483426   1.0000000
N2   N   0.237373076089995   0.189365849827149   0.111012350286759   1.0000000
N2   N   0.237804474157886   0.332473218359138   0.110993485802430   1.0000000
N2   N   0.237854153300503   0.476754575030207   0.111003995026560   1.0000000
N2   N   0.237747061241741   0.619442746909492   0.111038026669089   1.0000000
N2   N   0.237978965489613   0.762117809983506   0.111014963176812   1.0000000
N2   N   0.381093009876647   0.905010328490458   0.111013277014305   1.0000000
N2   N   0.381054830517101   0.047286834715463   0.111008105747694   1.0000000
N2   N   0.380764773182467   0.189242702279564   0.111027829788100   1.0000000
N2   N   0.380079360479037   0.330365347299817   0.111010679528130   1.0000000
N2   N   0.380658193518822   0.621017945734758   0.111025592161967   1.0000000
N2   N   0.381038661623376   0.762816251847442   0.111041282932250   1.0000000
N2   N   0.523944238323454   0.904655390277619   0.111012455596203   1.0000000
N2   N   0.523992670087002   0.047566659250013   0.110975340192954   1.0000000
N2   N   0.523912521852048   0.190266297339049   0.111002405280287   1.0000000
N2   N   0.523339545932585   0.332643107397056   0.111002781219811   1.0000000
N2   N   0.524186939336207   0.618605510420179   0.111045351421240   1.0000000
N2   N   0.523913377125635   0.761450193461922   0.111020615486120   1.0000000
N2   N   0.666565037366011   0.904262940472645   0.110990427901541   1.0000000
N2   N   0.666640613920581   0.047575793344362   0.111005369606167   1.0000000
N2   N   0.666602234393765   0.190868841709785   0.111008377219388   1.0000000
N2   N   0.666412996975720   0.334529401845336   0.110985032705635   1.0000000
N2   N   0.666225285301732   0.478745173533549   0.111039595752108   1.0000000
N2   N   0.667370121170663   0.617669755144436   0.111050190649014   1.0000000
N2   N   0.666616669078677   0.760898096654855   0.110976149686217   1.0000000
N2   N   0.809263535557808   0.904387477687083   0.110984732748124   1.0000000
N2   N   0.809313699268433   0.047404703146698   0.111013303299657   1.0000000
N2   N   0.809329218072296   0.190466657924727   0.111026087595690   1.0000000
N2   N   0.809194406642448   0.333509125769031   0.111010814199934   1.0000000
N2   N   0.808848639803063   0.476369272210283   0.110986894210095   1.0000000
N2   N   0.810177666318241   0.619455013526063   0.111029304244258   1.0000000
N2   N   0.809389847192896   0.761670589531005   0.111007658208869   1.0000000


