data_1
_audit_creation_method   'vasp2cif'
_cell_length_a    14.93631414619966
_cell_length_b    14.936314146199727
_cell_length_c    13.341276283792837
_cell_angle_alpha    90.0
_cell_angle_beta    90.0
_cell_angle_gamma    119.99999999999984

_symmetry_space_group_name_H-M    'P 1'
loop_
_atom_site_label
_atom_site_type_symbol
_atom_site_fract_x
_atom_site_fract_y
_atom_site_fract_z
_atom_site_occupancy
C2   C   0.717059204238080   0.608619707314978   0.375000000000000   1.0000000
C2   C   0.605786964353435   0.552749045666734   0.375000000000000   1.0000000
C2   C   0.441817427061729   0.388553752452808   0.375000000000000   1.0000000
C2   C   0.552239953502232   0.446364242225580   0.375000000000000   1.0000000
N2   N   0.111110587272980   0.055565410103885   0.125057178941373   1.0000000
N2   N   0.611119217580967   0.555613720395908   0.124001053684183   1.0000000
N2   N   0.444435359465880   0.055567395051306   0.125060121536757   1.0000000
N2   N   0.944432717270504   0.555547614153768   0.124995673625996   1.0000000
N2   N   0.777785038315347   0.055579038561895   0.124987159920980   1.0000000
N2   N   0.111090790605270   0.722212411350443   0.625004475546151   1.0000000
N2   N   0.444446991558299   0.722225152626831   0.624899169549967   1.0000000
N2   N   0.277775221577650   0.222243479201753   0.624908028409795   1.0000000
N2   N   0.777791314860500   0.722291109409353   0.625377147099488   1.0000000
N2   N   0.611106526885953   0.222225737995627   0.624989616402416   1.0000000
N2   N   0.944445569145279   0.222233586999017   0.625005558738827   1.0000000
N2   N   0.277766944623132   0.722216746744178   0.125031021795645   1.0000000
N2   N   0.111100970380578   0.222220354078063   0.125045179769950   1.0000000
N2   N   0.444449118008515   0.222257893853279   0.125111074228452   1.0000000
N2   N   0.611140169869704   0.722258866498410   0.124994911061474   1.0000000
N2   N   0.944413673819533   0.722210939467524   0.125020180951563   1.0000000
N2   N   0.777777707595953   0.222227298342644   0.125016310492840   1.0000000
N2   N   0.111093463664152   0.888882901694237   0.624957160565980   1.0000000
N2   N   0.444434121267288   0.888890718922436   0.624971875836456   1.0000000
N2   N   0.277781122093793   0.388888318792203   0.624887990768473   1.0000000
N2   N   0.611096598029379   0.388899538425675   0.625259942665809   1.0000000
N2   N   0.777808224229094   0.888947756887304   0.625064262500341   1.0000000
N2   N   0.944448263188891   0.388892981323144   0.624996139492025   1.0000000
N2   N   0.111113190869329   0.388891479408125   0.125067450321037   1.0000000
N2   N   0.277766660950579   0.888889390409479   0.125011971100793   1.0000000
N2   N   0.611114091187922   0.888901346426613   0.125069619442416   1.0000000
N2   N   0.444443533393351   0.388918219804586   0.124521316843106   1.0000000
N2   N   0.944449823871747   0.888912471155322   0.125005093772554   1.0000000
N2   N   0.777773734292459   0.388888521420960   0.124961625231936   1.0000000
N2   N   0.277779798551359   0.555551489550650   0.624896311215635   1.0000000
N2   N   0.111110587272980   0.055565410103885   0.624942821058627   1.0000000
N2   N   0.611119217580967   0.555613720395908   0.625998946315817   1.0000000
N2   N   0.444435359465880   0.055567395051306   0.624939878463242   1.0000000
N2   N   0.944432717270504   0.555547614153768   0.625004326374004   1.0000000
N2   N   0.111104476446851   0.555550782094585   0.125028671459115   1.0000000
N2   N   0.777785038315347   0.055579038561895   0.625012840079020   1.0000000
N2   N   0.277772936494706   0.055565693369454   0.125075852162453   1.0000000
N2   N   0.444461216382841   0.555570722999633   0.125015936114961   1.0000000
N2   N   0.777760746390245   0.555535204573497   0.124612934494693   1.0000000
N2   N   0.611100314119107   0.055554151305747   0.125018369555435   1.0000000
N2   N   0.444461216382841   0.555570722999633   0.624984063885040   1.0000000
N2   N   0.944455507913207   0.055577351604670   0.125013969711548   1.0000000
N2   N   0.277766944623132   0.722216746744178   0.624968978204355   1.0000000
N2   N   0.111100970380578   0.222220354078063   0.624954820230049   1.0000000
N2   N   0.444449118008515   0.222257893853279   0.624888925771548   1.0000000
N2   N   0.611140169869704   0.722258866498410   0.625005088938526   1.0000000
N2   N   0.944413673819533   0.722210939467524   0.624979819048438   1.0000000
N2   N   0.777777707595953   0.222227298342644   0.624983689507160   1.0000000
N2   N   0.111090790605270   0.722212411350443   0.124995524453849   1.0000000
N2   N   0.444446991558299   0.722225152626831   0.125100830450032   1.0000000
N2   N   0.277775221577650   0.222243479201753   0.125091971590204   1.0000000
N2   N   0.777791314860500   0.722291109409353   0.124622852900512   1.0000000
N2   N   0.611106526885953   0.222225737995627   0.125010383597585   1.0000000
N2   N   0.944445569145279   0.222233586999017   0.124994441261173   1.0000000
N2   N   0.111113190869329   0.388891479408125   0.624932549678963   1.0000000
N2   N   0.277766660950579   0.888889390409479   0.624988028899207   1.0000000
N2   N   0.611114091187922   0.888901346426613   0.624930380557585   1.0000000
N2   N   0.444443533393351   0.388918219804586   0.625478683156894   1.0000000
N2   N   0.944449823871747   0.888912471155322   0.624994906227446   1.0000000
N2   N   0.111093463664152   0.888882901694237   0.125042839434013   1.0000000
N2   N   0.777773734292459   0.388888521420960   0.625038374768064   1.0000000
N2   N   0.444434121267288   0.888890718922436   0.125028124163544   1.0000000
N2   N   0.277781122093793   0.388888318792203   0.125112009231527   1.0000000
N2   N   0.277779798551359   0.555551489550650   0.125103688784365   1.0000000
N2   N   0.611096598029379   0.388899538425675   0.124740057334192   1.0000000
N2   N   0.777808224229094   0.888947756887304   0.124935737499659   1.0000000
N2   N   0.944448263188891   0.388892981323144   0.125003860507975   1.0000000
N2   N   0.111104476446851   0.555550782094585   0.624971328540892   1.0000000
N2   N   0.277772936494706   0.055565693369454   0.624924147837547   1.0000000
N2   N   0.777760746390245   0.555535204573497   0.625387065505306   1.0000000
N2   N   0.611100314119107   0.055554151305747   0.624981630444565   1.0000000
N2   N   0.944455507913207   0.055577351604670   0.624986030288451   1.0000000
N2   N   0.055775657152751   0.111322326186631   0.375000000000000   1.0000000
N2   N   0.555172382726463   0.610082980809255   0.375000000000000   1.0000000
N2   N   0.389238505671642   0.112718636412379   0.375000000000000   1.0000000
N2   N   0.889340794689165   0.610533205958848   0.375000000000000   1.0000000
N2   N   0.722151108417378   0.110847462766868   0.375000000000000   1.0000000
N2   N   0.055554921377304   0.777773574972597   0.875000000000000   1.0000000
N2   N   0.388886805179001   0.777773020400078   0.875000000000000   1.0000000
N2   N   0.222219029818047   0.277769823518754   0.875000000000000   1.0000000
N2   N   0.722217928200918   0.777774462364584   0.875000000000000   1.0000000
N2   N   0.555550357211910   0.277763511597541   0.875000000000000   1.0000000
N2   N   0.888884800864025   0.277773085259713   0.875000000000000   1.0000000
N2   N   0.222475141278242   0.777996725824452   0.375000000000000   1.0000000
N2   N   0.055717301737827   0.277834434317712   0.375000000000000   1.0000000
N2   N   0.389499860947459   0.281220278552401   0.375000000000000   1.0000000
N2   N   0.555417936103307   0.777050661746437   0.375000000000000   1.0000000
N2   N   0.889309376120877   0.778735244882161   0.375000000000000   1.0000000
N2   N   0.722473940216226   0.276658066852480   0.375000000000000   1.0000000
N2   N   0.055554281415815   0.944441669796175   0.875000000000000   1.0000000
N2   N   0.388888378116843   0.944437105768746   0.875000000000000   1.0000000
N2   N   0.222219572960818   0.444438646117555   0.875000000000000   1.0000000
N2   N   0.555550104966586   0.444432852688641   0.875000000000000   1.0000000
N2   N   0.722216743007826   0.944438566231958   0.875000000000000   1.0000000
N2   N   0.888887038746887   0.444438912434465   0.875000000000000   1.0000000
N2   N   0.056206136241487   0.444481223364967   0.375000000000000   1.0000000
N2   N   0.222581083518524   0.944941378629399   0.375000000000000   1.0000000
N2   N   0.555387783176311   0.944060083535909   0.375000000000000   1.0000000
N2   N   0.388293153205558   0.442013912584128   0.375000000000000   1.0000000
N2   N   0.889249832056090   0.945100660159611   0.375000000000000   1.0000000
N2   N   0.723356075488007   0.442094609923037   0.375000000000000   1.0000000
N2   N   0.222217600441302   0.611104016720874   0.875000000000000   1.0000000
N2   N   0.055551744280794   0.111102423805802   0.875000000000000   1.0000000
N2   N   0.555547538150211   0.611103215288334   0.875000000000000   1.0000000
N2   N   0.388887368557437   0.111100128873363   0.875000000000000   1.0000000
N2   N   0.888890126685187   0.611106031043151   0.875000000000000   1.0000000
N2   N   0.056221581316522   0.611210207830754   0.375000000000000   1.0000000
N2   N   0.722214323293129   0.111102061706509   0.875000000000000   1.0000000
N2   N   0.223097250016201   0.112127109046348   0.375000000000000   1.0000000
N2   N   0.389043364281688   0.610085368151568   0.375000000000000   1.0000000
N2   N   0.555500113873631   0.110750677999375   0.375000000000000   1.0000000
N2   N   0.388885734675400   0.611104590324457   0.875000000000000   1.0000000
N2   N   0.889058398815524   0.111246915326360   0.375000000000000   1.0000000
N2   N   0.222220300351120   0.777771643348321   0.875000000000000   1.0000000
N2   N   0.055551623278186   0.277771530314351   0.875000000000000   1.0000000
N2   N   0.388886781081889   0.277767847240316   0.875000000000000   1.0000000
N2   N   0.555550525359420   0.777770716000918   0.875000000000000   1.0000000
N2   N   0.888890746847500   0.777776321165649   0.875000000000000   1.0000000
N2   N   0.722216606120564   0.277769139438451   0.875000000000000   1.0000000
N2   N   0.055556170017893   0.777844837899574   0.375000000000000   1.0000000
N2   N   0.389032427253334   0.777536785704374   0.375000000000000   1.0000000
N2   N   0.221730998911623   0.277629278115864   0.375000000000000   1.0000000
N2   N   0.722511538628389   0.780240357692831   0.375000000000000   1.0000000
N2   N   0.556123995663382   0.277530916075005   0.375000000000000   1.0000000
N2   N   0.889222677500075   0.277591499818255   0.375000000000000   1.0000000
N2   N   0.055551460285963   0.444439575648300   0.875000000000000   1.0000000
N2   N   0.222220954372679   0.944437812700180   0.875000000000000   1.0000000
N2   N   0.555549703861656   0.944436388535311   0.875000000000000   1.0000000
N2   N   0.388886341350066   0.444438602599754   0.875000000000000   1.0000000
N2   N   0.888889167120146   0.944440965413659   0.875000000000000   1.0000000
N2   N   0.056252321981935   0.945195470105189   0.375000000000000   1.0000000
N2   N   0.722216702459896   0.444434211773260   0.875000000000000   1.0000000
N2   N   0.389011636950242   0.944894033298502   0.375000000000000   1.0000000
N2   N   0.222632024920113   0.444435993143728   0.375000000000000   1.0000000
N2   N   0.222709957906286   0.611139435124368   0.375000000000000   1.0000000
N2   N   0.722095486592069   0.945131901732156   0.375000000000000   1.0000000
N2   N   0.889814168120943   0.444072512758951   0.375000000000000   1.0000000
N2   N   0.055552381403195   0.611103461235255   0.875000000000000   1.0000000
N2   N   0.222219510759486   0.111102792040866   0.875000000000000   1.0000000
N2   N   0.722219186056041   0.611105417957793   0.875000000000000   1.0000000
N2   N   0.555548934672615   0.111097145314008   0.875000000000000   1.0000000
N2   N   0.888885258848249   0.111103749552402   0.875000000000000   1.0000000
B2   B   0.111695196244988   0.056158804795708   0.375000000000000   1.0000000
B2   B   0.444513195679743   0.056219579178872   0.375000000000000   1.0000000
B2   B   0.945066232439068   0.555424572701246   0.375000000000000   1.0000000
B2   B   0.777868170696388   0.055815876548079   0.375000000000000   1.0000000
B2   B   0.111096874506040   0.722213135985237   0.875000000000000   1.0000000
B2   B   0.444449393462964   0.722219951031314   0.875000000000000   1.0000000
B2   B   0.277784012266271   0.222215365042489   0.875000000000000   1.0000000
B2   B   0.777772325720804   0.722205822469120   0.875000000000000   1.0000000
B2   B   0.611109403694689   0.222220468632304   0.875000000000000   1.0000000
B2   B   0.944430372835882   0.222212377583476   0.875000000000000   1.0000000
B2   B   0.277937839618437   0.722307623282616   0.375000000000000   1.0000000
B2   B   0.110722104407868   0.222042075401764   0.375000000000000   1.0000000
B2   B   0.445349961893927   0.224086348096911   0.375000000000000   1.0000000
B2   B   0.611774134051156   0.722377298584766   0.375000000000000   1.0000000
B2   B   0.944039322855782   0.721995867617998   0.375000000000000   1.0000000
B2   B   0.778068465481265   0.221658357211296   0.375000000000000   1.0000000
B2   B   0.111099071347909   0.888875607278029   0.875000000000000   1.0000000
B2   B   0.444445066583151   0.888884893336127   0.875000000000000   1.0000000
B2   B   0.277784884847857   0.388885800891862   0.875000000000000   1.0000000
B2   B   0.611115457102384   0.388893121412373   0.875000000000000   1.0000000
B2   B   0.777773294756840   0.888872793689780   0.875000000000000   1.0000000
B2   B   0.944430051954293   0.388886892659585   0.875000000000000   1.0000000
B2   B   0.111367303260810   0.388834134810750   0.375000000000000   1.0000000
B2   B   0.277918991279839   0.889156887640000   0.375000000000000   1.0000000
B2   B   0.611055310889767   0.888640125293430   0.375000000000000   1.0000000
B2   B   0.944996550880702   0.889556893421384   0.375000000000000   1.0000000
B2   B   0.778805419479478   0.387426440651861   0.375000000000000   1.0000000
B2   B   0.277777134125664   0.555554480804110   0.875000000000000   1.0000000
B2   B   0.111101823960899   0.055541246778237   0.875000000000000   1.0000000
B2   B   0.611121151275421   0.555547345393688   0.875000000000000   1.0000000
B2   B   0.444446746088940   0.055549242287942   0.875000000000000   1.0000000
B2   B   0.944429201943379   0.555552097358193   0.875000000000000   1.0000000
B2   B   0.111547502421604   0.555607938364808   0.375000000000000   1.0000000
B2   B   0.777769497545770   0.055544571491535   0.875000000000000   1.0000000
B2   B   0.278104715255154   0.056114789436142   0.375000000000000   1.0000000
B2   B   0.444072265129937   0.554257524452290   0.375000000000000   1.0000000
B2   B   0.777933094635706   0.552629358849357   0.375000000000000   1.0000000
B2   B   0.611059402635316   0.055225859572837   0.375000000000000   1.0000000
B2   B   0.444459343226831   0.555554403319112   0.875000000000000   1.0000000
B2   B   0.944664745463242   0.055837606056045   0.375000000000000   1.0000000
B2   B   0.277772760480329   0.722218643631853   0.875000000000000   1.0000000
B2   B   0.111102876397547   0.222209135152468   0.875000000000000   1.0000000
B2   B   0.444454995237396   0.222220928264676   0.875000000000000   1.0000000
B2   B   0.611119005746143   0.722211445629106   0.875000000000000   1.0000000
B2   B   0.944428532430826   0.722208803207040   0.875000000000000   1.0000000
B2   B   0.777768067774404   0.222219314617751   0.875000000000000   1.0000000
B2   B   0.111247254072782   0.722348833629690   0.375000000000000   1.0000000
B2   B   0.444433745724127   0.721697245511877   0.375000000000000   1.0000000
B2   B   0.277825064182037   0.222996001688266   0.375000000000000   1.0000000
B2   B   0.777956245879208   0.724977782821692   0.375000000000000   1.0000000
B2   B   0.611408303225906   0.221656924694212   0.375000000000000   1.0000000
B2   B   0.944605826163265   0.222161940520035   0.375000000000000   1.0000000
B2   B   0.111100402887956   0.388883853022285   0.875000000000000   1.0000000
B2   B   0.277773155863842   0.888880527064368   0.875000000000000   1.0000000
B2   B   0.611111761829141   0.888881383753463   0.875000000000000   1.0000000
B2   B   0.444466101466628   0.388891199040372   0.875000000000000   1.0000000
B2   B   0.944431743074216   0.888870402462337   0.875000000000000   1.0000000
B2   B   0.111289553302244   0.889115886592794   0.375000000000000   1.0000000
B2   B   0.777768570255337   0.388891262069068   0.875000000000000   1.0000000
B2   B   0.444393510446985   0.888898910979531   0.375000000000000   1.0000000
B2   B   0.276705219233827   0.387995161046374   0.375000000000000   1.0000000
B2   B   0.277926558130662   0.555454278975638   0.375000000000000   1.0000000
B2   B   0.612820641312366   0.388425186363690   0.375000000000000   1.0000000
B2   B   0.778055160175232   0.890410387670061   0.375000000000000   1.0000000
B2   B   0.945099901234873   0.388681658854804   0.375000000000000   1.0000000
B2   B   0.111097107584678   0.555551711215692   0.875000000000000   1.0000000
B2   B   0.277776413417558   0.055545003703492   0.875000000000000   1.0000000
B2   B   0.777769763938675   0.555552038459372   0.875000000000000   1.0000000
B2   B   0.611107657377550   0.055549593352893   0.875000000000000   1.0000000
B2   B   0.944433500866416   0.055538800705908   0.875000000000000   1.0000000
B2   B   0.055531694856154   0.111095994709696   0.125007005242644   1.0000000
B2   B   0.555663551487116   0.611126503979622   0.124626328019139   1.0000000
B2   B   0.388892401377651   0.111139181659332   0.125036095268236   1.0000000
B2   B   0.888814148288938   0.611084395944392   0.125003642428613   1.0000000
B2   B   0.722228638940632   0.111126063829695   0.124998328643037   1.0000000
B2   B   0.055484310885658   0.777739585597821   0.624963101550015   1.0000000
B2   B   0.388880184197198   0.777780487771270   0.624993404304151   1.0000000
B2   B   0.222199397264551   0.277765025646182   0.625033320831747   1.0000000
B2   B   0.722285287213627   0.777809002018394   0.625114059796660   1.0000000
B2   B   0.555601968611807   0.277864784810773   0.625050794089485   1.0000000
B2   B   0.888880401871384   0.277789444147633   0.625002789836830   1.0000000
B2   B   0.222178553040780   0.777763750989247   0.124994842473465   1.0000000
B2   B   0.055529717703207   0.277769334556023   0.124991807751718   1.0000000
B2   B   0.388938350680139   0.277866685886890   0.124844840903378   1.0000000
B2   B   0.555597883547745   0.777792353798239   0.125019704962531   1.0000000
B2   B   0.888843924971995   0.777762114433240   0.124998478530935   1.0000000
B2   B   0.722230054649611   0.277810730724336   0.124993609102523   1.0000000
B2   B   0.055515695746043   0.944420692640959   0.624968723452351   1.0000000
B2   B   0.388874434605198   0.944449853288730   0.625000123520474   1.0000000
B2   B   0.222208408922502   0.444441987757865   0.624989516270603   1.0000000
B2   B   0.555627087859272   0.444574738593783   0.625290891665394   1.0000000
B2   B   0.722253850393526   0.944462731775820   0.625002588977188   1.0000000
B2   B   0.888863547497257   0.444454948916821   0.624999018427040   1.0000000
B2   B   0.055527912722007   0.444445580563915   0.125005870341782   1.0000000
B2   B   0.222184322956434   0.944425598405957   0.125013534391829   1.0000000
B2   B   0.555562211264181   0.944454637114474   0.125007319552827   1.0000000
B2   B   0.388945320735590   0.444451968883752   0.124732247603691   1.0000000
B2   B   0.888891212862917   0.944449103043781   0.124992588368440   1.0000000
B2   B   0.722220295444476   0.444496443812624   0.124874657545036   1.0000000
B2   B   0.222193336887879   0.611107182113278   0.624991735046184   1.0000000
B2   B   0.055531694856154   0.111095994709696   0.624992994757356   1.0000000
B2   B   0.555663551487116   0.611126503979622   0.625373671980854   1.0000000
B2   B   0.388892401377651   0.111139181659332   0.624963904731764   1.0000000
B2   B   0.888814148288938   0.611084395944392   0.624996357571387   1.0000000
B2   B   0.055502659870426   0.611096761471783   0.125018954953126   1.0000000
B2   B   0.722228638940632   0.111126063829695   0.625001671356963   1.0000000
B2   B   0.222203234996387   0.111107757008815   0.125024248240025   1.0000000
B2   B   0.388910138453178   0.611115031560413   0.125002539331116   1.0000000
B2   B   0.722209076175719   0.611131741956309   0.124899213642307   1.0000000
B2   B   0.555568409321098   0.111140332389647   0.125008505274230   1.0000000
B2   B   0.388910138453178   0.611115031560413   0.624997460668884   1.0000000
B2   B   0.888888259280854   0.111114281548518   0.124992189592328   1.0000000
B2   B   0.222178553040780   0.777763750989247   0.625005157526535   1.0000000
B2   B   0.055529717703207   0.277769334556023   0.625008192248282   1.0000000
B2   B   0.388938350680139   0.277866685886890   0.625155159096623   1.0000000
B2   B   0.555597883547745   0.777792353798239   0.624980295037469   1.0000000
B2   B   0.888843924971995   0.777762114433240   0.625001521469065   1.0000000
B2   B   0.722230054649611   0.277810730724336   0.625006390897477   1.0000000
B2   B   0.055484310885658   0.777739585597821   0.125036898449986   1.0000000
B2   B   0.388880184197198   0.777780487771270   0.125006595695849   1.0000000
B2   B   0.222199397264551   0.277765025646182   0.124966679168253   1.0000000
B2   B   0.722285287213627   0.777809002018394   0.124885940203339   1.0000000
B2   B   0.555601968611807   0.277864784810773   0.124949205910514   1.0000000
B2   B   0.888880401871384   0.277789444147633   0.124997210163170   1.0000000
B2   B   0.055527912722007   0.444445580563915   0.624994129658219   1.0000000
B2   B   0.222184322956434   0.944425598405957   0.624986465608171   1.0000000
B2   B   0.555562211264181   0.944454637114474   0.624992680447173   1.0000000
B2   B   0.388945320735590   0.444451968883752   0.625267752396310   1.0000000
B2   B   0.888891212862917   0.944449103043781   0.625007411631559   1.0000000
B2   B   0.055515695746043   0.944420692640959   0.125031276547649   1.0000000
B2   B   0.722220295444476   0.444496443812624   0.625125342454964   1.0000000
B2   B   0.388874434605198   0.944449853288730   0.124999876479525   1.0000000
B2   B   0.222208408922502   0.444441987757865   0.125010483729397   1.0000000
B2   B   0.222193336887879   0.611107182113278   0.125008264953816   1.0000000
B2   B   0.555627087859272   0.444574738593783   0.124709108334607   1.0000000
B2   B   0.722253850393526   0.944462731775820   0.124997411022813   1.0000000
B2   B   0.888863547497257   0.444454948916821   0.125000981572960   1.0000000
B2   B   0.055502659870426   0.611096761471783   0.624981045046874   1.0000000
B2   B   0.222203234996387   0.111107757008815   0.624975751759975   1.0000000
B2   B   0.722209076175719   0.611131741956309   0.625100786357692   1.0000000
B2   B   0.555568409321098   0.111140332389647   0.624991494725770   1.0000000
B2   B   0.888888259280854   0.111114281548518   0.625007810407673   1.0000000


