data_1
_audit_creation_method   'vasp2cif'
_cell_length_a    14.93631414619966
_cell_length_b    14.936314146199727
_cell_length_c    13.341276283792837
_cell_angle_alpha    90.0
_cell_angle_beta    90.0
_cell_angle_gamma    119.99999999999984

_symmetry_space_group_name_H-M    'P 1'
loop_
_atom_site_label
_atom_site_type_symbol
_atom_site_fract_x
_atom_site_fract_y
_atom_site_fract_z
_atom_site_occupancy
C2   C   0.389344296982894   0.444700841777591   0.375000000000000   1.0000000
O2   O   0.557138109248937   0.445193097507175   0.375000000000000   1.0000000
N2   N   0.111093235671756   0.055521721033911   0.125013956344778   1.0000000
N2   N   0.611086444816984   0.555548482036840   0.125722806940614   1.0000000
N2   N   0.444446599476355   0.055575810669163   0.124993621977364   1.0000000
N2   N   0.944407175253852   0.555530457138191   0.125001924322260   1.0000000
N2   N   0.777772248421911   0.055532039809376   0.124998238933295   1.0000000
N2   N   0.111098848370475   0.722192395021738   0.624992637304110   1.0000000
N2   N   0.444438143318176   0.722219649344990   0.624960476738090   1.0000000
N2   N   0.277749349856504   0.222196204916286   0.624811178027018   1.0000000
N2   N   0.777810904856678   0.722264021849455   0.624887775184635   1.0000000
N2   N   0.611096752532913   0.222249190409054   0.624861039847525   1.0000000
N2   N   0.944450471941480   0.222207125009755   0.625008169854267   1.0000000
N2   N   0.277768521118411   0.722202301791010   0.125050502193408   1.0000000
N2   N   0.111103196154282   0.222197452772908   0.125028594290401   1.0000000
N2   N   0.444403369718679   0.222250236062187   0.125109731434367   1.0000000
N2   N   0.611115636792072   0.722216055410737   0.125161808835389   1.0000000
N2   N   0.944447816403365   0.722223557623245   0.125056244227632   1.0000000
N2   N   0.777768645409316   0.222204307196232   0.124996420435303   1.0000000
N2   N   0.111114859083939   0.888869663189992   0.624982853108965   1.0000000
N2   N   0.444441279646814   0.888893227242004   0.624985387238989   1.0000000
N2   N   0.277772031831401   0.388870287099897   0.624941669127288   1.0000000
N2   N   0.611075684412348   0.388947892461352   0.624882437795879   1.0000000
N2   N   0.777786063168784   0.888888807838936   0.624962718489382   1.0000000
N2   N   0.944416894170217   0.388870902570689   0.624964410610297   1.0000000
N2   N   0.111104308681542   0.388877658669155   0.125015525825713   1.0000000
N2   N   0.277781951554114   0.888878675815991   0.125015305868962   1.0000000
N2   N   0.611099488360933   0.888874130405418   0.125017802084785   1.0000000
N2   N   0.444479320592844   0.388931024759614   0.125635133397471   1.0000000
N2   N   0.944467537618238   0.888900389721830   0.124998171522754   1.0000000
N2   N   0.777737486868806   0.388881438713337   0.125132670260156   1.0000000
N2   N   0.277767305726531   0.555534659609681   0.624878754546811   1.0000000
N2   N   0.111093235671756   0.055521721033911   0.624986043655218   1.0000000
N2   N   0.611086444816984   0.555548482036840   0.624277193059387   1.0000000
N2   N   0.444446599476355   0.055575810669163   0.625006378022648   1.0000000
N2   N   0.944407175253852   0.555530457138191   0.624998075677751   1.0000000
N2   N   0.111086624968072   0.555532030585417   0.125037995313362   1.0000000
N2   N   0.777772248421911   0.055532039809376   0.625001761066699   1.0000000
N2   N   0.277767142979187   0.055546022714840   0.125091069787042   1.0000000
N2   N   0.444444030963686   0.555571754431936   0.125121553546633   1.0000000
N2   N   0.777758134787145   0.555601987491208   0.125156416662881   1.0000000
N2   N   0.611099926293197   0.055558210307536   0.125036696020279   1.0000000
N2   N   0.444444030963686   0.555571754431936   0.624878446453375   1.0000000
N2   N   0.944445878821189   0.055541175050302   0.124998112792134   1.0000000
N2   N   0.277768521118411   0.722202301791010   0.624949497806598   1.0000000
N2   N   0.111103196154282   0.222197452772908   0.624971405709598   1.0000000
N2   N   0.444403369718679   0.222250236062187   0.624890268565632   1.0000000
N2   N   0.611115636792072   0.722216055410737   0.624838191164616   1.0000000
N2   N   0.944447816403365   0.722223557623245   0.624943755772367   1.0000000
N2   N   0.777768645409316   0.222204307196232   0.625003579564702   1.0000000
N2   N   0.111098848370475   0.722192395021738   0.125007362695897   1.0000000
N2   N   0.444438143318176   0.722219649344990   0.125039523261901   1.0000000
N2   N   0.277749349856504   0.222196204916286   0.125188821972971   1.0000000
N2   N   0.777810904856678   0.722264021849455   0.125112224815367   1.0000000
N2   N   0.611096752532913   0.222249190409054   0.125138960152471   1.0000000
N2   N   0.944450471941480   0.222207125009755   0.124991830145724   1.0000000
N2   N   0.111104308681542   0.388877658669155   0.624984474174288   1.0000000
N2   N   0.277781951554114   0.888878675815991   0.624984694131050   1.0000000
N2   N   0.611099488360933   0.888874130405418   0.624982197915210   1.0000000
N2   N   0.444479320592844   0.388931024759614   0.624364866602535   1.0000000
N2   N   0.944467537618238   0.888900389721830   0.625001828477252   1.0000000
N2   N   0.111114859083939   0.888869663189992   0.125017146891031   1.0000000
N2   N   0.777737486868806   0.388881438713337   0.624867329739843   1.0000000
N2   N   0.444441279646814   0.888893227242004   0.125014612761011   1.0000000
N2   N   0.277772031831401   0.388870287099897   0.125058330872713   1.0000000
N2   N   0.277767305726531   0.555534659609681   0.125121245453189   1.0000000
N2   N   0.611075684412348   0.388947892461352   0.125117562204114   1.0000000
N2   N   0.777786063168784   0.888888807838936   0.125037281510624   1.0000000
N2   N   0.944416894170217   0.388870902570689   0.125035589389707   1.0000000
N2   N   0.111086624968072   0.555532030585417   0.624962004686645   1.0000000
N2   N   0.277767142979187   0.055546022714840   0.624908930212953   1.0000000
N2   N   0.777758134787145   0.555601987491208   0.624843583337124   1.0000000
N2   N   0.611099926293197   0.055558210307536   0.624963303979728   1.0000000
N2   N   0.944445878821189   0.055541175050302   0.625001887207859   1.0000000
N2   N   0.054663524265861   0.110254895562970   0.375000000000000   1.0000000
N2   N   0.557308590036554   0.612869164203259   0.375000000000000   1.0000000
N2   N   0.388463331267133   0.109406300844244   0.375000000000000   1.0000000
N2   N   0.889636873541938   0.611580222636483   0.375000000000000   1.0000000
N2   N   0.722159156485209   0.111326311056284   0.375000000000000   1.0000000
N2   N   0.055552978823398   0.777779849976447   0.875000000000000   1.0000000
N2   N   0.388892841845839   0.777785862338113   0.875000000000000   1.0000000
N2   N   0.222222529537119   0.277784767525966   0.875000000000000   1.0000000
N2   N   0.722217284552543   0.777780278455768   0.875000000000000   1.0000000
N2   N   0.555561177947939   0.277786263016865   0.875000000000000   1.0000000
N2   N   0.888897070751793   0.277788736225822   0.875000000000000   1.0000000
N2   N   0.222237710746595   0.777619336977581   0.375000000000000   1.0000000
N2   N   0.054579711301399   0.277350002354072   0.375000000000000   1.0000000
N2   N   0.390493059514662   0.276810441848316   0.375000000000000   1.0000000
N2   N   0.556114168816750   0.778558201178694   0.375000000000000   1.0000000
N2   N   0.888740023438287   0.777618215520930   0.375000000000000   1.0000000
N2   N   0.722101269918058   0.278030601297386   0.375000000000000   1.0000000
N2   N   0.055556210954497   0.944447198037605   0.875000000000000   1.0000000
N2   N   0.388898900008978   0.944458421735599   0.875000000000000   1.0000000
N2   N   0.222227643026295   0.444451264725752   0.875000000000000   1.0000000
N2   N   0.555557635571031   0.444444432647435   0.875000000000000   1.0000000
N2   N   0.722220453935888   0.944446763670228   0.875000000000000   1.0000000
N2   N   0.888889696616652   0.444443292431304   0.875000000000000   1.0000000
N2   N   0.054708045314604   0.444490266954450   0.375000000000000   1.0000000
N2   N   0.222014023118433   0.944071144423913   0.375000000000000   1.0000000
N2   N   0.555672012889233   0.944700866257123   0.375000000000000   1.0000000
N2   N   0.888885383906075   0.944427821775772   0.375000000000000   1.0000000
N2   N   0.723398961993461   0.445426233600980   0.375000000000000   1.0000000
N2   N   0.222223994735796   0.611117290507994   0.875000000000000   1.0000000
N2   N   0.055553794527325   0.111114186698082   0.875000000000000   1.0000000
N2   N   0.555554544643830   0.611108752244475   0.875000000000000   1.0000000
N2   N   0.388898640553290   0.111125083643250   0.875000000000000   1.0000000
N2   N   0.888881254991957   0.611107028120682   0.875000000000000   1.0000000
N2   N   0.055897112623721   0.611325691336420   0.375000000000000   1.0000000
N2   N   0.722219868405326   0.111110051692610   0.875000000000000   1.0000000
N2   N   0.222423663320770   0.111282785109485   0.375000000000000   1.0000000
N2   N   0.389483085851377   0.613425038768316   0.375000000000000   1.0000000
N2   N   0.721629909138949   0.610398779639266   0.375000000000000   1.0000000
N2   N   0.555321957620716   0.110786064269711   0.375000000000000   1.0000000
N2   N   0.388893150237382   0.611112497489519   0.875000000000000   1.0000000
N2   N   0.888552301426392   0.111014623589127   0.375000000000000   1.0000000
N2   N   0.222225507003802   0.777785794395913   0.875000000000000   1.0000000
N2   N   0.055560089633220   0.277787269189039   0.875000000000000   1.0000000
N2   N   0.388888142540592   0.277786000273081   0.875000000000000   1.0000000
N2   N   0.555556150109470   0.777777605173242   0.875000000000000   1.0000000
N2   N   0.888891127476480   0.777780561732750   0.875000000000000   1.0000000
N2   N   0.722227842962172   0.277775291683411   0.875000000000000   1.0000000
N2   N   0.055721051735811   0.777849612000300   0.375000000000000   1.0000000
N2   N   0.388977553890387   0.778516031312082   0.375000000000000   1.0000000
N2   N   0.219944042376621   0.275901960347386   0.375000000000000   1.0000000
N2   N   0.723098084677359   0.778585764093318   0.375000000000000   1.0000000
N2   N   0.555072294117644   0.277016228126952   0.375000000000000   1.0000000
N2   N   0.888446056127382   0.277793911089118   0.375000000000000   1.0000000
N2   N   0.055559107364370   0.444454287235321   0.875000000000000   1.0000000
N2   N   0.222228038995278   0.944455881546186   0.875000000000000   1.0000000
N2   N   0.555556075071879   0.944448397944113   0.875000000000000   1.0000000
N2   N   0.388892834116490   0.444447989751380   0.875000000000000   1.0000000
N2   N   0.888889819660355   0.944450397125757   0.875000000000000   1.0000000
N2   N   0.055502959743274   0.944381097257300   0.375000000000000   1.0000000
N2   N   0.722218524860359   0.444442456895416   0.875000000000000   1.0000000
N2   N   0.388656379398282   0.943928432327356   0.375000000000000   1.0000000
N2   N   0.220026470896604   0.443915110359012   0.375000000000000   1.0000000
N2   N   0.222291996685407   0.611105971478166   0.375000000000000   1.0000000
N2   N   0.722409760853193   0.944810381638087   0.375000000000000   1.0000000
N2   N   0.889045353934008   0.444859524664490   0.375000000000000   1.0000000
N2   N   0.055550425459549   0.611110598203705   0.875000000000000   1.0000000
N2   N   0.222221899723515   0.111112416863167   0.875000000000000   1.0000000
N2   N   0.722215450717750   0.611112245679512   0.875000000000000   1.0000000
N2   N   0.555563662550022   0.111115868174862   0.875000000000000   1.0000000
N2   N   0.888891294544715   0.111117025369913   0.875000000000000   1.0000000
B2   B   0.110941092834334   0.055426885386336   0.375000000000000   1.0000000
B2   B   0.612666589463308   0.558412105905766   0.375000000000000   1.0000000
B2   B   0.444156645284573   0.054517783809818   0.375000000000000   1.0000000
B2   B   0.944997659911543   0.555981183942554   0.375000000000000   1.0000000
B2   B   0.777692439815794   0.055888935625563   0.375000000000000   1.0000000
B2   B   0.111106285330960   0.722227021170642   0.875000000000000   1.0000000
B2   B   0.444445235029640   0.722246092561240   0.875000000000000   1.0000000
B2   B   0.277757558425935   0.222204518351376   0.875000000000000   1.0000000
B2   B   0.777798683058834   0.722245015683490   0.875000000000000   1.0000000
B2   B   0.611126702369323   0.222217102890565   0.875000000000000   1.0000000
B2   B   0.944435107509150   0.222230241058131   0.875000000000000   1.0000000
B2   B   0.277850859978498   0.722363623075614   0.375000000000000   1.0000000
B2   B   0.109130887121584   0.220725053541204   0.375000000000000   1.0000000
B2   B   0.445265096096719   0.219497637088182   0.375000000000000   1.0000000
B2   B   0.612859134650545   0.724466315809430   0.375000000000000   1.0000000
B2   B   0.944825550300674   0.722244423062301   0.375000000000000   1.0000000
B2   B   0.777503531469254   0.222378596460521   0.375000000000000   1.0000000
B2   B   0.111116786217360   0.888890151706471   0.875000000000000   1.0000000
B2   B   0.444453262314762   0.888910733862360   0.875000000000000   1.0000000
B2   B   0.277751350549476   0.388877803022899   0.875000000000000   1.0000000
B2   B   0.611132573236754   0.388871685769652   0.875000000000000   1.0000000
B2   B   0.777788198053178   0.888910864758325   0.875000000000000   1.0000000
B2   B   0.944437385413255   0.388887827673992   0.875000000000000   1.0000000
B2   B   0.109187223862081   0.388448823613284   0.375000000000000   1.0000000
B2   B   0.277616697152848   0.888585697075315   0.375000000000000   1.0000000
B2   B   0.611533098347390   0.889732229348870   0.375000000000000   1.0000000
B2   B   0.944361926118215   0.888818734153587   0.375000000000000   1.0000000
B2   B   0.778426363605926   0.389383292517108   0.375000000000000   1.0000000
B2   B   0.277761780471180   0.555562874293991   0.875000000000000   1.0000000
B2   B   0.111103712976169   0.055549033807959   0.875000000000000   1.0000000
B2   B   0.611128547533907   0.555567168704300   0.875000000000000   1.0000000
B2   B   0.444461417643018   0.055571455543088   0.875000000000000   1.0000000
B2   B   0.944434536019765   0.555545433152420   0.875000000000000   1.0000000
B2   B   0.111023866019803   0.555579000661674   0.375000000000000   1.0000000
B2   B   0.777777209261167   0.055571274176224   0.875000000000000   1.0000000
B2   B   0.277805347469829   0.054891508117139   0.375000000000000   1.0000000
B2   B   0.446632902501286   0.560855716556079   0.375000000000000   1.0000000
B2   B   0.779122259553051   0.555222420757835   0.375000000000000   1.0000000
B2   B   0.611106317584891   0.055667695208771   0.375000000000000   1.0000000
B2   B   0.444443440196529   0.555566492025075   0.875000000000000   1.0000000
B2   B   0.943887868703956   0.055223280613196   0.375000000000000   1.0000000
B2   B   0.277775738717538   0.722237297682020   0.875000000000000   1.0000000
B2   B   0.111092315423222   0.222214689327837   0.875000000000000   1.0000000
B2   B   0.444454719505412   0.222211490415948   0.875000000000000   1.0000000
B2   B   0.611124114387491   0.722249118879228   0.875000000000000   1.0000000
B2   B   0.944451065266451   0.722222629606992   0.875000000000000   1.0000000
B2   B   0.777783054806043   0.222222203802411   0.875000000000000   1.0000000
B2   B   0.111267447418683   0.722335528322915   0.375000000000000   1.0000000
B2   B   0.444906377171344   0.724159104028720   0.375000000000000   1.0000000
B2   B   0.277438457142369   0.221954339874637   0.375000000000000   1.0000000
B2   B   0.777986503131088   0.722490554457682   0.375000000000000   1.0000000
B2   B   0.610852003752596   0.221601459239833   0.375000000000000   1.0000000
B2   B   0.943577264014097   0.221969368351012   0.375000000000000   1.0000000
B2   B   0.111094772012505   0.388895867383843   0.875000000000000   1.0000000
B2   B   0.277784899511906   0.888904805346488   0.875000000000000   1.0000000
B2   B   0.611112220886911   0.888911365766039   0.875000000000000   1.0000000
B2   B   0.444438874325664   0.388874043223442   0.875000000000000   1.0000000
B2   B   0.944452417670829   0.888897932557961   0.875000000000000   1.0000000
B2   B   0.111116415732612   0.888731990627341   0.375000000000000   1.0000000
B2   B   0.777785876276908   0.388876450764841   0.875000000000000   1.0000000
B2   B   0.444565712665280   0.889223509063084   0.375000000000000   1.0000000
B2   B   0.272367506851121   0.386070147451216   0.375000000000000   1.0000000
B2   B   0.277482319325187   0.555633779216694   0.375000000000000   1.0000000
B2   B   0.614057409054005   0.386628303786831   0.375000000000000   1.0000000
B2   B   0.778294411115740   0.889610656562417   0.375000000000000   1.0000000
B2   B   0.943919122870998   0.388932617406005   0.375000000000000   1.0000000
B2   B   0.111099140546159   0.555557774823067   0.875000000000000   1.0000000
B2   B   0.277783479677041   0.055554681609145   0.875000000000000   1.0000000
B2   B   0.777792800432585   0.555549469850553   0.875000000000000   1.0000000
B2   B   0.611120246441825   0.055568258716845   0.875000000000000   1.0000000
B2   B   0.944440476532889   0.055563080567215   0.875000000000000   1.0000000
B2   B   0.055542202490462   0.111058173237912   0.125002660657429   1.0000000
B2   B   0.555565204416784   0.611187166228607   0.125028394429542   1.0000000
B2   B   0.388879255791651   0.111075658783155   0.125143355159947   1.0000000
B2   B   0.888924221490997   0.611122668462278   0.125127698555894   1.0000000
B2   B   0.722229081328111   0.111124584169597   0.125008210269556   1.0000000
B2   B   0.055577102354992   0.777770496686593   0.624963687874330   1.0000000
B2   B   0.388869741185243   0.777821365225273   0.624979074925973   1.0000000
B2   B   0.222149124241874   0.277683531401334   0.624992717394854   1.0000000
B2   B   0.722311745993652   0.777845497590181   0.624991018408507   1.0000000
B2   B   0.555533282053348   0.277721069596125   0.624719403060282   1.0000000
B2   B   0.888850285546733   0.277744380783086   0.624992402510894   1.0000000
B2   B   0.222195613271086   0.777783249564572   0.125033316893114   1.0000000
B2   B   0.055512059727725   0.277745015251452   0.124987411180685   1.0000000
B2   B   0.388820528694423   0.277645457539579   0.125129175598856   1.0000000
B2   B   0.555544927276778   0.777842037228049   0.124979508464475   1.0000000
B2   B   0.888958927224493   0.777831278290297   0.125016693713466   1.0000000
B2   B   0.722192862318464   0.277791127164797   0.125131889121367   1.0000000
B2   B   0.055560351759021   0.944426334991392   0.624995678130758   1.0000000
B2   B   0.388882679497428   0.944477065510879   0.624969441945007   1.0000000
B2   B   0.222140286780588   0.444434810203210   0.625011846064441   1.0000000
B2   B   0.555610399852788   0.444435535409280   0.625399838665088   1.0000000
B2   B   0.722234883057214   0.944470563122501   0.625003787832728   1.0000000
B2   B   0.888834389057826   0.444440174485546   0.624909122635794   1.0000000
B2   B   0.055500915324756   0.444423177555274   0.125023265277642   1.0000000
B2   B   0.222215536404383   0.944407661154938   0.125060320694483   1.0000000
B2   B   0.555548748954181   0.944477749433888   0.125014088491431   1.0000000
B2   B   0.388826243472126   0.444453103064210   0.125029974182323   1.0000000
B2   B   0.888926730762238   0.944444614734617   0.125002894386219   1.0000000
B2   B   0.722293239790382   0.444476826349018   0.125283232123931   1.0000000
B2   B   0.222159497336851   0.611111606900756   0.624951070475926   1.0000000
B2   B   0.055542202490462   0.111058173237912   0.624997339342565   1.0000000
B2   B   0.555565204416784   0.611187166228607   0.624971605570457   1.0000000
B2   B   0.388879255791651   0.111075658783155   0.624856644840053   1.0000000
B2   B   0.888924221490997   0.611122668462278   0.624872301444107   1.0000000
B2   B   0.055507591797299   0.611097194326059   0.125026477199502   1.0000000
B2   B   0.722229081328111   0.111124584169597   0.624991789730441   1.0000000
B2   B   0.222165983844946   0.111030265242672   0.125044793670642   1.0000000
B2   B   0.388828870248697   0.611171391983578   0.124969092158610   1.0000000
B2   B   0.722375037379839   0.611209961261488   0.125149016966497   1.0000000
B2   B   0.555533786172163   0.111147213400774   0.125102599345336   1.0000000
B2   B   0.388828870248697   0.611171391983578   0.625030907841398   1.0000000
B2   B   0.888877261059941   0.111098009285858   0.124999378802793   1.0000000
B2   B   0.222195613271086   0.777783249564572   0.624966683106891   1.0000000
B2   B   0.055512059727725   0.277745015251452   0.625012588819318   1.0000000
B2   B   0.388820528694423   0.277645457539579   0.624870824401153   1.0000000
B2   B   0.555544927276778   0.777842037228049   0.625020491535531   1.0000000
B2   B   0.888958927224493   0.777831278290297   0.624983306286531   1.0000000
B2   B   0.722192862318464   0.277791127164797   0.624868110878628   1.0000000
B2   B   0.055577102354992   0.777770496686593   0.125036312125675   1.0000000
B2   B   0.388869741185243   0.777821365225273   0.125020925074026   1.0000000
B2   B   0.222149124241874   0.277683531401334   0.125007282605148   1.0000000
B2   B   0.722311745993652   0.777845497590181   0.125008981591494   1.0000000
B2   B   0.555533282053348   0.277721069596125   0.125280596939735   1.0000000
B2   B   0.888850285546733   0.277744380783086   0.125007597489104   1.0000000
B2   B   0.055500915324756   0.444423177555274   0.624976734722359   1.0000000
B2   B   0.222215536404383   0.944407661154938   0.624939679305527   1.0000000
B2   B   0.555548748954181   0.944477749433888   0.624985911508571   1.0000000
B2   B   0.388826243472126   0.444453103064210   0.624970025817664   1.0000000
B2   B   0.888926730762238   0.944444614734617   0.624997105613786   1.0000000
B2   B   0.055560351759021   0.944426334991392   0.125004321869242   1.0000000
B2   B   0.722293239790382   0.444476826349018   0.624716767876071   1.0000000
B2   B   0.388882679497428   0.944477065510879   0.125030558055000   1.0000000
B2   B   0.222140286780588   0.444434810203210   0.124988153935556   1.0000000
B2   B   0.222159497336851   0.611111606900756   0.125048929524079   1.0000000
B2   B   0.555610399852788   0.444435535409280   0.124600161334912   1.0000000
B2   B   0.722234883057214   0.944470563122501   0.124996212167271   1.0000000
B2   B   0.888834389057826   0.444440174485546   0.125090877364207   1.0000000
B2   B   0.055507591797299   0.611097194326059   0.624973522800490   1.0000000
B2   B   0.222165983844946   0.111030265242672   0.624955206329366   1.0000000
B2   B   0.722375037379839   0.611209961261488   0.624850983033501   1.0000000
B2   B   0.555533786172163   0.111147213400774   0.624897400654661   1.0000000
B2   B   0.888877261059941   0.111098009285858   0.625000621197205   1.0000000
B2   B   0.444551939012879   0.384846742355944   0.375000000000000   1.0000000


