data_1
_audit_creation_method   'vasp2cif'
_cell_length_a    14.93631414619966
_cell_length_b    14.936314146199727
_cell_length_c    13.341276283792837
_cell_angle_alpha    90.0
_cell_angle_beta    90.0
_cell_angle_gamma    119.99999999999984

_symmetry_space_group_name_H-M    'P 1'
loop_
_atom_site_label
_atom_site_type_symbol
_atom_site_fract_x
_atom_site_fract_y
_atom_site_fract_z
_atom_site_occupancy
In2   In   0.488571201458323   0.410952267395826   0.375000000000000   1.0000000
N2   N   0.111183263870959   0.055587016380240   0.124962936102901   1.0000000
N2   N   0.611248458818910   0.555701441630239   0.123454973946866   1.0000000
N2   N   0.444530766843302   0.055579821373934   0.124906349323052   1.0000000
N2   N   0.944515468057078   0.555586563070693   0.124982246911436   1.0000000
N2   N   0.777865527630723   0.055599430482027   0.124974880915495   1.0000000
N2   N   0.111181737256479   0.722257535294904   0.624992161110857   1.0000000
N2   N   0.444530766843302   0.722284278802710   0.625093650676947   1.0000000
N2   N   0.277838504574459   0.222243769969878   0.625027295768890   1.0000000
N2   N   0.777862990556165   0.722288136455448   0.625271722790497   1.0000000
N2   N   0.611205177040009   0.222230488353674   0.625356723814665   1.0000000
N2   N   0.944525716402318   0.222260464237350   0.625044533514549   1.0000000
N2   N   0.277854408504373   0.722264757824791   0.124978020474223   1.0000000
N2   N   0.111186838012045   0.222260085672684   0.125023698218699   1.0000000
N2   N   0.444554699158080   0.222256939801389   0.124780634145389   1.0000000
N2   N   0.611205177040009   0.722308022019663   0.124643276185335   1.0000000
N2   N   0.944515468057078   0.722262238319720   0.124982246911436   1.0000000
N2   N   0.777864556155108   0.222247157196318   0.124936712664400   1.0000000
N2   N   0.111184044632237   0.888925140049785   0.625021941673521   1.0000000
N2   N   0.444526537090359   0.888929935211844   0.625047831035437   1.0000000
N2   N   0.277838504574459   0.388928067937909   0.625027295768890   1.0000000
N2   N   0.611248458818910   0.388880350522000   0.626545026053133   1.0000000
N2   N   0.777864556155108   0.888950732292119   0.625063287335598   1.0000000
N2   N   0.944524035647746   0.388921339354355   0.625001843261337   1.0000000
N2   N   0.111183263870959   0.388929580824041   0.124962936102901   1.0000000
N2   N   0.277854408504373   0.888922984012912   0.124978020474223   1.0000000
N2   N   0.611195884630574   0.888947307282072   0.124960401264436   1.0000000
N2   N   0.444515652875435   0.388924493104377   0.125629097743190   1.0000000
N2   N   0.944524035647746   0.888936029626721   0.124998156738663   1.0000000
N2   N   0.777862990556165   0.388908187434038   0.124728277209503   1.0000000
N2   N   0.277862208487588   0.555607128540653   0.624999571470922   1.0000000
N2   N   0.111183263870959   0.055587016380240   0.625037063897099   1.0000000
N2   N   0.611248458818910   0.555701441630239   0.626545026053133   1.0000000
N2   N   0.444530766843302   0.055579821373934   0.625093650676947   1.0000000
N2   N   0.944515468057078   0.555586563070693   0.625017753088563   1.0000000
N2   N   0.111184044632237   0.555592237915780   0.124978058326480   1.0000000
N2   N   0.777865527630723   0.055599430482027   0.625025119084506   1.0000000
N2   N   0.277862208487588   0.055588413280271   0.125000428529078   1.0000000
N2   N   0.444554699158080   0.555631092690026   0.124780634145389   1.0000000
N2   N   0.777851820025263   0.555592576679300   0.124491117006974   1.0000000
N2   N   0.611195884630574   0.055581910681838   0.124960401264436   1.0000000
N2   N   0.444554699158080   0.555631092690026   0.625219365854603   1.0000000
N2   N   0.944525716402318   0.055598585498304   0.124955466485452   1.0000000
N2   N   0.277854408504373   0.722264757824791   0.625021979525776   1.0000000
N2   N   0.111186838012045   0.222260085672684   0.624976301781308   1.0000000
N2   N   0.444554699158080   0.222256939801389   0.625219365854603   1.0000000
N2   N   0.611205177040009   0.722308022019663   0.625356723814665   1.0000000
N2   N   0.944515468057078   0.722262238319720   0.625017753088563   1.0000000
N2   N   0.777864556155108   0.222247157196318   0.625063287335598   1.0000000
N2   N   0.111181737256479   0.722257535294904   0.125007838889145   1.0000000
N2   N   0.444530766843302   0.722284278802710   0.124906349323052   1.0000000
N2   N   0.277838504574459   0.222243769969878   0.124972704231111   1.0000000
N2   N   0.777862990556165   0.722288136455448   0.124728277209503   1.0000000
N2   N   0.611205177040009   0.222230488353674   0.124643276185335   1.0000000
N2   N   0.944525716402318   0.222260464237350   0.124955466485452   1.0000000
N2   N   0.111183263870959   0.388929580824041   0.625037063897099   1.0000000
N2   N   0.277854408504373   0.888922984012912   0.625021979525776   1.0000000
N2   N   0.611195884630574   0.888947307282072   0.625039598735564   1.0000000
N2   N   0.444515652875435   0.388924493104377   0.624370902256810   1.0000000
N2   N   0.944524035647746   0.888936029626721   0.625001843261337   1.0000000
N2   N   0.111184044632237   0.888925140049785   0.124978058326480   1.0000000
N2   N   0.777862990556165   0.388908187434038   0.625271722790497   1.0000000
N2   N   0.444526537090359   0.888929935211844   0.124952168964556   1.0000000
N2   N   0.277838504574459   0.388928067937909   0.124972704231111   1.0000000
N2   N   0.277862208487588   0.555607128540653   0.125000428529078   1.0000000
N2   N   0.611248458818910   0.388880350522000   0.123454973946866   1.0000000
N2   N   0.777864556155108   0.888950732292119   0.124936712664400   1.0000000
N2   N   0.944524035647746   0.388921339354355   0.124998156738663   1.0000000
N2   N   0.111184044632237   0.555592237915780   0.625021941673521   1.0000000
N2   N   0.277862208487588   0.055588413280271   0.624999571470922   1.0000000
N2   N   0.777851820025263   0.555592576679300   0.625508882993026   1.0000000
N2   N   0.611195884630574   0.055581910681838   0.625039598735564   1.0000000
N2   N   0.944525716402318   0.055598585498304   0.625044533514549   1.0000000
N2   N   0.055521222063214   0.111083662540933   0.375000000000000   1.0000000
N2   N   0.554329544230973   0.615499916486152   0.375000000000000   1.0000000
N2   N   0.386473724110984   0.103466705204294   0.375000000000000   1.0000000
N2   N   0.888201185248114   0.610767259290728   0.375000000000000   1.0000000
N2   N   0.722386462266668   0.110712223651227   0.375000000000000   1.0000000
N2   N   0.055552938271538   0.777778302947557   0.875000000000000   1.0000000
N2   N   0.388884697941904   0.777777307095335   0.875000000000000   1.0000000
N2   N   0.222218629156736   0.277775981245036   0.875000000000000   1.0000000
N2   N   0.722220927797302   0.777777139985908   0.875000000000000   1.0000000
N2   N   0.555546780592694   0.277769703494464   0.875000000000000   1.0000000
N2   N   0.888888395845149   0.277777799623817   0.875000000000000   1.0000000
N2   N   0.220168327830372   0.776750830581853   0.375000000000000   1.0000000
N2   N   0.055521222063214   0.277770892855624   0.375000000000000   1.0000000
N2   N   0.383684878482470   0.262191880895789   0.375000000000000   1.0000000
N2   N   0.554962364633158   0.779938203889670   0.375000000000000   1.0000000
N2   N   0.888490020279403   0.777844016979260   0.375000000000000   1.0000000
N2   N   0.722332063884133   0.276699579583907   0.375000000000000   1.0000000
N2   N   0.055550287843092   0.944443207554968   0.875000000000000   1.0000000
N2   N   0.388884697941904   0.944440724179898   0.875000000000000   1.0000000
N2   N   0.222215925754008   0.444441027951917   0.875000000000000   1.0000000
N2   N   0.555546027644336   0.444439680488829   0.875000000000000   1.0000000
N2   N   0.722218837939382   0.944442936759032   0.875000000000000   1.0000000
N2   N   0.888890529635475   0.444444206122962   0.875000000000000   1.0000000
N2   N   0.054052442115938   0.444324624749984   0.375000000000000   1.0000000
N2   N   0.219875172434328   0.941671471382632   0.375000000000000   1.0000000
N2   N   0.555084374501730   0.944208853917528   0.375000000000000   1.0000000
N2   N   0.383684878482469   0.454826330920017   0.375000000000000   1.0000000
N2   N   0.888861092975537   0.944794719977344   0.375000000000000   1.0000000
N2   N   0.723529135854633   0.444600897704998   0.375000000000000   1.0000000
N2   N   0.222215331620075   0.611106825197538   0.875000000000000   1.0000000
N2   N   0.055551430340089   0.111108914552457   0.875000000000000   1.0000000
N2   N   0.555546780592694   0.611110410431566   0.875000000000000   1.0000000
N2   N   0.388883156082809   0.111106003772599   0.875000000000000   1.0000000
N2   N   0.888894708143423   0.611114020738380   0.875000000000000   1.0000000
N2   N   0.053889034131260   0.610586001905531   0.375000000000000   1.0000000
N2   N   0.722218837939382   0.111109234513685   0.875000000000000   1.0000000
N2   N   0.219440741759515   0.107332988800050   0.375000000000000   1.0000000
N2   N   0.386473724110984   0.616340352240033   0.375000000000000   1.0000000
N2   N   0.723529135854633   0.612261571482971   0.375000000000000   1.0000000
N2   N   0.554962364633158   0.108357494076824   0.375000000000000   1.0000000
N2   N   0.388883156082809   0.611110485643560   0.875000000000000   1.0000000
N2   N   0.889088454241232   0.111210893787291   0.375000000000000   1.0000000
N2   N   0.222217330099882   0.777775331716613   0.875000000000000   1.0000000
N2   N   0.055551430340089   0.277775849120960   0.875000000000000   1.0000000
N2   N   0.388888196621521   0.277776915976286   0.875000000000000   1.0000000
N2   N   0.555550393179900   0.777777626971921   0.875000000000000   1.0000000
N2   N   0.888890529635475   0.777779656845849   0.875000000000000   1.0000000
N2   N   0.722220927797302   0.277777121144730   0.875000000000000   1.0000000
N2   N   0.053889034131260   0.776636365559063   0.375000000000000   1.0000000
N2   N   0.387232613924826   0.778823322365739   0.375000000000000   1.0000000
N2   N   0.223046249380699   0.278189791357021   0.375000000000000   1.0000000
N2   N   0.722332063884133   0.778965817633552   0.375000000000000   1.0000000
N2   N   0.554329544230973   0.272162961078155   0.375000000000000   1.0000000
N2   N   0.888861092975537   0.277399706331536   0.375000000000000   1.0000000
N2   N   0.055550287843092   0.444440413621452   0.875000000000000   1.0000000
N2   N   0.222215331620075   0.944441839755872   0.875000000000000   1.0000000
N2   N   0.555550587225663   0.944441960279492   0.875000000000000   1.0000000
N2   N   0.388888196621521   0.444444613978571   0.875000000000000   1.0000000
N2   N   0.888888395845149   0.944443929554668   0.875000000000000   1.0000000
N2   N   0.054052442115938   0.943061150699282   0.375000000000000   1.0000000
N2   N   0.722226632022551   0.444448166724364   0.875000000000000   1.0000000
N2   N   0.387232613924826   0.941742624892415   0.375000000000000   1.0000000
N2   N   0.219440741759515   0.445441086292794   0.375000000000000   1.0000000
N2   N   0.219875172434328   0.611537034385026   0.375000000000000   1.0000000
N2   N   0.722386462266668   0.945007571948770   0.375000000000000   1.0000000
N2   N   0.888490020279403   0.443979336633471   0.375000000000000   1.0000000
N2   N   0.055552938271538   0.611107968657310   0.875000000000000   1.0000000
N2   N   0.222215925754008   0.111108231135427   0.875000000000000   1.0000000
N2   N   0.722226632022551   0.611111798631522   0.875000000000000   1.0000000
N2   N   0.555550393179900   0.111106099541315   0.875000000000000   1.0000000
N2   N   0.888887711088892   0.111110522211118   0.875000000000000   1.0000000
B2   B   0.109541947828143   0.053927297317271   0.375000000000000   1.0000000
B2   B   0.615895613369105   0.566870577243483   0.375000000000000   1.0000000
B2   B   0.443516208552921   0.051340111679294   0.375000000000000   1.0000000
B2   B   0.943497719773604   0.555031143747237   0.375000000000000   1.0000000
B2   B   0.778240710254759   0.055787021794047   0.375000000000000   1.0000000
B2   B   0.111114890651323   0.722224111992322   0.875000000000000   1.0000000
B2   B   0.444429879954284   0.722215632893289   0.875000000000000   1.0000000
B2   B   0.277756777727150   0.222213802426976   0.875000000000000   1.0000000
B2   B   0.777784305136900   0.722234832147724   0.875000000000000   1.0000000
B2   B   0.611100733852332   0.222208447554946   0.875000000000000   1.0000000
B2   B   0.944454721278568   0.222222127078097   0.875000000000000   1.0000000
B2   B   0.276067702257280   0.722197837641729   0.375000000000000   1.0000000
B2   B   0.112101012198723   0.222717172766022   0.375000000000000   1.0000000
B2   B   0.441102416164732   0.212441600256873   0.375000000000000   1.0000000
B2   B   0.611216395883681   0.725885379970437   0.375000000000000   1.0000000
B2   B   0.943497719773604   0.721799909359701   0.375000000000000   1.0000000
B2   B   0.778108582361834   0.221533646249320   0.375000000000000   1.0000000
B2   B   0.111113371811069   0.888899583235191   0.875000000000000   1.0000000
B2   B   0.444435069259128   0.888884201296229   0.875000000000000   1.0000000
B2   B   0.277756777727150   0.388876308633503   0.875000000000000   1.0000000
B2   B   0.611097476020735   0.388876597874197   0.875000000000000   1.0000000
B2   B   0.777784101699209   0.888901081458224   0.875000000000000   1.0000000
B2   B   0.944454900049087   0.388882635609093   0.875000000000000   1.0000000
B2   B   0.109541947828143   0.388947983844201   0.375000000000000   1.0000000
B2   B   0.276067702257280   0.887203197948880   0.375000000000000   1.0000000
B2   B   0.611320704385475   0.890111654365719   0.375000000000000   1.0000000
B2   B   0.943789410879104   0.888813568778863   0.375000000000000   1.0000000
B2   B   0.778420924489964   0.387785416006209   0.375000000000000   1.0000000
B2   B   0.277765848142634   0.555543489578677   0.875000000000000   1.0000000
B2   B   0.111111381729051   0.055564240354850   0.875000000000000   1.0000000
B2   B   0.611097476020735   0.555554211479867   0.875000000000000   1.0000000
B2   B   0.444429879954284   0.055547580394330   0.875000000000000   1.0000000
B2   B   0.944457451631351   0.555556561244971   0.875000000000000   1.0000000
B2   B   0.109316668270454   0.555264728252232   0.375000000000000   1.0000000
B2   B   0.777784582457879   0.055558957895604   0.875000000000000   1.0000000
B2   B   0.275433603779517   0.052113092821314   0.375000000000000   1.0000000
B2   B   0.441102416164732   0.561994149241195   0.375000000000000   1.0000000
B2   B   0.778147941408036   0.555740637370687   0.375000000000000   1.0000000
B2   B   0.611320704385475   0.054542383353084   0.375000000000000   1.0000000
B2   B   0.444422886873070   0.555549490982982   0.875000000000000   1.0000000
B2   B   0.944809365162328   0.055980408072090   0.375000000000000   1.0000000
B2   B   0.277771408090816   0.722215265557926   0.875000000000000   1.0000000
B2   B   0.111111293131219   0.222222313232274   0.875000000000000   1.0000000
B2   B   0.444422886873070   0.222206729223423   0.875000000000000   1.0000000
B2   B   0.611100733852332   0.722225619630713   0.875000000000000   1.0000000
B2   B   0.944457451631351   0.722234223719713   0.875000000000000   1.0000000
B2   B   0.777784101699209   0.222216353574321   0.875000000000000   1.0000000
B2   B   0.109440934107754   0.721387133720541   0.375000000000000   1.0000000
B2   B   0.443516208552921   0.725509430206963   0.375000000000000   1.0000000
B2   B   0.276252035813396   0.218816552168794   0.375000000000000   1.0000000
B2   B   0.778420924489964   0.723968841817086   0.375000000000000   1.0000000
B2   B   0.611216395883681   0.218664349246573   0.375000000000000   1.0000000
B2   B   0.944809365162328   0.222162290423565   0.375000000000000   1.0000000
B2   B   0.111111381729051   0.388880474707529   0.875000000000000   1.0000000
B2   B   0.277771408090816   0.888889475866219   0.875000000000000   1.0000000
B2   B   0.611106089239773   0.888890138679225   0.875000000000000   1.0000000
B2   B   0.444421143597057   0.388877238465189   0.875000000000000   1.0000000
B2   B   0.944454900049087   0.888905597773325   0.875000000000000   1.0000000
B2   B   0.109316668270454   0.887385273351544   0.375000000000000   1.0000000
B2   B   0.777784305136900   0.388882806322503   0.875000000000000   1.0000000
B2   B   0.443778708275662   0.888556020804496   0.375000000000000   1.0000000
B2   B   0.276252035813396   0.390768816977931   0.375000000000000   1.0000000
B2   B   0.275433603779517   0.556653844291540   0.375000000000000   1.0000000
B2   B   0.615895613369105   0.382358369458951   0.375000000000000   1.0000000
B2   B   0.778108582361834   0.889908269445843   0.375000000000000   1.0000000
B2   B   0.943789410879104   0.388309175433568   0.375000000000000   1.0000000
B2   B   0.111113371811069   0.555547121909207   0.875000000000000   1.0000000
B2   B   0.277765848142634   0.055555691897291   0.875000000000000   1.0000000
B2   B   0.777786513491005   0.555559923412174   0.875000000000000   1.0000000
B2   B   0.611106089239773   0.055549283893882   0.875000000000000   1.0000000
B2   B   0.944454721278568   0.055565927533806   0.875000000000000   1.0000000
B2   B   0.055669198504700   0.111181220417986   0.125049839937414   1.0000000
B2   B   0.555608677811958   0.611219364768658   0.124230178075283   1.0000000
B2   B   0.388934651454688   0.111105403554973   0.125010526273040   1.0000000
B2   B   0.889007469350075   0.611170401341709   0.124780825577939   1.0000000
B2   B   0.722302735653150   0.111124703330361   0.124963285455460   1.0000000
B2   B   0.055673166793459   0.777851234020542   0.625016677096494   1.0000000
B2   B   0.388958897860504   0.777821542339790   0.625030965225023   1.0000000
B2   B   0.222299487622244   0.277816410477790   0.624751676814289   1.0000000
B2   B   0.722303928760333   0.777883849574794   0.625297514282501   1.0000000
B2   B   0.555608677811958   0.277722646376637   0.625769821924717   1.0000000
B2   B   0.888996603379057   0.277796970734721   0.625032790619343   1.0000000
B2   B   0.222316738513907   0.777825035923622   0.124988114182174   1.0000000
B2   B   0.055669198504700   0.277821311420051   0.125049839937414   1.0000000
B2   B   0.388807210561207   0.277610515286426   0.125362125341448   1.0000000
B2   B   0.555610765654096   0.777854572990380   0.124866251754189   1.0000000
B2   B   0.889014522840969   0.777879870011701   0.124876652488688   1.0000000
B2   B   0.722303928760333   0.277753412518874   0.124702485717499   1.0000000
B2   B   0.055670155609526   0.944530915580018   0.624995813822846   1.0000000
B2   B   0.388958897860504   0.944470688854050   0.625030965225023   1.0000000
B2   B   0.222302186833076   0.444479776240594   0.624870898828718   1.0000000
B2   B   0.555782053183405   0.444557693258367   0.625311268110516   1.0000000
B2   B   0.722302735653150   0.944511365656125   0.625036714544540   1.0000000
B2   B   0.889014522840969   0.444467986162604   0.625123347511312   1.0000000
B2   B   0.055670155609526   0.444472573362836   0.125004186177156   1.0000000
B2   B   0.222316325664525   0.944505742954832   0.125017196277372   1.0000000
B2   B   0.555621287662249   0.944477310497785   0.124980577043449   1.0000000
B2   B   0.388807210561207   0.444530028608117   0.125362125341448   1.0000000
B2   B   0.888996603379057   0.944532965977670   0.124967209380657   1.0000000
B2   B   0.722334935240689   0.444454499977474   0.124041865491845   1.0000000
B2   B   0.222316325664525   0.611143916043029   0.624982803722628   1.0000000
B2   B   0.055669198504700   0.111181220417986   0.624950160062586   1.0000000
B2   B   0.555608677811958   0.611219364768658   0.625769821924717   1.0000000
B2   B   0.388934651454688   0.111105403554973   0.624989473726960   1.0000000
B2   B   0.889007469350075   0.611170401341709   0.625219174422060   1.0000000
B2   B   0.055673166793459   0.611155266106252   0.124983322903500   1.0000000
B2   B   0.722302735653150   0.111124703330361   0.625036714544540   1.0000000
B2   B   0.222302186833076   0.111155743925818   0.125129101171282   1.0000000
B2   B   0.388934651454688   0.611162581233051   0.125010526273040   1.0000000
B2   B   0.722334935240689   0.611213768596551   0.124041865491845   1.0000000
B2   B   0.555610765654096   0.111089525997051   0.124866251754189   1.0000000
B2   B   0.388934651454688   0.611162581233051   0.624989473726960   1.0000000
B2   B   0.888994381730297   0.111163857531820   0.124985863433062   1.0000000
B2   B   0.222316738513907   0.777825035923622   0.625011885817826   1.0000000
B2   B   0.055669198504700   0.277821311420051   0.624950160062586   1.0000000
B2   B   0.388807210561207   0.277610515286426   0.624637874658552   1.0000000
B2   B   0.555610765654096   0.777854572990380   0.625133748245810   1.0000000
B2   B   0.889014522840969   0.777879870011701   0.625123347511312   1.0000000
B2   B   0.722303928760333   0.277753412518874   0.625297514282501   1.0000000
B2   B   0.055673166793459   0.777851234020542   0.124983322903500   1.0000000
B2   B   0.388958897860504   0.777821542339790   0.124969034774978   1.0000000
B2   B   0.222299487622244   0.277816410477790   0.125248323185711   1.0000000
B2   B   0.722303928760333   0.777883849574794   0.124702485717499   1.0000000
B2   B   0.555608677811958   0.277722646376637   0.124230178075283   1.0000000
B2   B   0.888996603379057   0.277796970734721   0.124967209380657   1.0000000
B2   B   0.055670155609526   0.444472573362836   0.624995813822846   1.0000000
B2   B   0.222316325664525   0.944505742954832   0.624982803722628   1.0000000
B2   B   0.555621287662249   0.944477310497785   0.625019422956550   1.0000000
B2   B   0.388807210561207   0.444530028608117   0.624637874658552   1.0000000
B2   B   0.888996603379057   0.944532965977670   0.625032790619343   1.0000000
B2   B   0.055670155609526   0.944530915580018   0.125004186177156   1.0000000
B2   B   0.722334935240689   0.444454499977474   0.625958134508154   1.0000000
B2   B   0.388958897860504   0.944470688854050   0.124969034774978   1.0000000
B2   B   0.222302186833076   0.444479776240594   0.125129101171282   1.0000000
B2   B   0.222316325664525   0.611143916043029   0.125017196277372   1.0000000
B2   B   0.555782053183405   0.444557693258367   0.124688731889484   1.0000000
B2   B   0.722302735653150   0.944511365656125   0.124963285455460   1.0000000
B2   B   0.889014522840969   0.444467986162604   0.124876652488688   1.0000000
B2   B   0.055673166793459   0.611155266106252   0.625016677096494   1.0000000
B2   B   0.222302186833076   0.111155743925818   0.624870898828718   1.0000000
B2   B   0.722334935240689   0.611213768596551   0.625958134508154   1.0000000
B2   B   0.555610765654096   0.111089525997051   0.625133748245810   1.0000000
B2   B   0.888994381730297   0.111163857531820   0.625014136566938   1.0000000


