data_1
_audit_creation_method   'vasp2cif'
_cell_length_a    14.93631414619966
_cell_length_b    14.936314146199727
_cell_length_c    13.341276283792837
_cell_angle_alpha    90.0
_cell_angle_beta    90.0
_cell_angle_gamma    119.99999999999984

_symmetry_space_group_name_H-M    'P 1'
loop_
_atom_site_label
_atom_site_type_symbol
_atom_site_fract_x
_atom_site_fract_y
_atom_site_fract_z
_atom_site_occupancy
C2   C   0.444489380143774   0.388911356738552   0.375000000000000   1.0000000
C2   C   0.549968858371388   0.441651095852358   0.375000000000000   1.0000000
N2   N   0.111105158825889   0.055553905237669   0.125054943768997   1.0000000
N2   N   0.611116314126018   0.555566552569406   0.124647460682490   1.0000000
N2   N   0.444440587331827   0.055560757981566   0.125032375863889   1.0000000
N2   N   0.944439965087822   0.555552144972819   0.124993659184639   1.0000000
N2   N   0.777777825356870   0.055555579345103   0.125012052232978   1.0000000
N2   N   0.111104986877535   0.722219160105432   0.624994192432199   1.0000000
N2   N   0.444440587331827   0.722213162683597   0.624967624136111   1.0000000
N2   N   0.277766287628630   0.222224076735271   0.624876058360388   1.0000000
N2   N   0.777778233654203   0.722225955358289   0.625034294794695   1.0000000
N2   N   0.611107574562949   0.222226004059594   0.624988700331240   1.0000000
N2   N   0.944442549309749   0.222220897522842   0.624980758338239   1.0000000
N2   N   0.277774480615110   0.722218181594391   0.125018774379875   1.0000000
N2   N   0.111095722003224   0.222214527668276   0.125058929037734   1.0000000
N2   N   0.444439851343085   0.222234189104730   0.125047863533520   1.0000000
N2   N   0.611107574562949   0.722214903836684   0.125011299668759   1.0000000
N2   N   0.944439965087822   0.722221153448336   0.124993659184639   1.0000000
N2   N   0.777779926998363   0.222221016534342   0.125003092447649   1.0000000
N2   N   0.111105787123692   0.888888341817074   0.624987384059994   1.0000000
N2   N   0.444441758644776   0.888887545989052   0.624982437586683   1.0000000
N2   N   0.277766287628630   0.388875544226688   0.624876058360388   1.0000000
N2   N   0.611116314126018   0.388883094889939   0.625352539317510   1.0000000
N2   N   0.777779926998363   0.888892243797350   0.624996907552351   1.0000000
N2   N   0.944445128357315   0.388887284016634   0.624992452368096   1.0000000
N2   N   0.111105158825889   0.388884586921548   0.125054943768997   1.0000000
N2   N   0.277774480615110   0.888889632354049   0.125018774379875   1.0000000
N2   N   0.611107647076471   0.888885445117058   0.125015086033007   1.0000000
N2   N   0.444393350500809   0.388863341917069   0.124428918725687   1.0000000
N2   N   0.944445128357315   0.888891177674009   0.125007547631904   1.0000000
N2   N   0.777778233654203   0.388885611629243   0.124965705205305   1.0000000
N2   N   0.277773296605214   0.555546423945948   0.624950339786817   1.0000000
N2   N   0.111105158825889   0.055553905237669   0.624945056231003   1.0000000
N2   N   0.611116314126018   0.555566552569406   0.625352539317510   1.0000000
N2   N   0.444440587331827   0.055560757981566   0.624967624136111   1.0000000
N2   N   0.944439965087822   0.555552144972819   0.625006340815361   1.0000000
N2   N   0.111105787123692   0.555550778639946   0.125012615940006   1.0000000
N2   N   0.777777825356870   0.055555579345103   0.624987947767022   1.0000000
N2   N   0.277773296605214   0.055560205992601   0.125049660213184   1.0000000
N2   N   0.444439851343085   0.555538995571690   0.125047863533520   1.0000000
N2   N   0.777774571366667   0.555553952350001   0.124957817155114   1.0000000
N2   N   0.611107647076471   0.055555535292743   0.125015086033007   1.0000000
N2   N   0.444439851343085   0.555538995571690   0.624952136466480   1.0000000
N2   N   0.944442549309749   0.055554985120242   0.125019241661761   1.0000000
N2   N   0.277774480615110   0.722218181594391   0.624981225620126   1.0000000
N2   N   0.111095722003224   0.222214527668276   0.624941070962266   1.0000000
N2   N   0.444439851343085   0.222234189104730   0.624952136466480   1.0000000
N2   N   0.611107574562949   0.722214903836684   0.624988700331240   1.0000000
N2   N   0.944439965087822   0.722221153448336   0.625006340815361   1.0000000
N2   N   0.777779926998363   0.222221016534342   0.624996907552351   1.0000000
N2   N   0.111104986877535   0.722219160105432   0.125005807567801   1.0000000
N2   N   0.444440587331827   0.722213162683597   0.125032375863889   1.0000000
N2   N   0.277766287628630   0.222224076735271   0.125123941639612   1.0000000
N2   N   0.777778233654203   0.722225955358289   0.124965705205305   1.0000000
N2   N   0.611107574562949   0.222226004059594   0.125011299668759   1.0000000
N2   N   0.944442549309749   0.222220897522842   0.125019241661761   1.0000000
N2   N   0.111105158825889   0.388884586921548   0.624945056231003   1.0000000
N2   N   0.277774480615110   0.888889632354049   0.624981225620126   1.0000000
N2   N   0.611107647076471   0.888885445117058   0.624984913966993   1.0000000
N2   N   0.444393350500809   0.388863341917069   0.625571081274313   1.0000000
N2   N   0.944445128357315   0.888891177674009   0.624992452368096   1.0000000
N2   N   0.111105787123692   0.888888341817074   0.125012615940006   1.0000000
N2   N   0.777778233654203   0.388885611629243   0.625034294794695   1.0000000
N2   N   0.444441758644776   0.888887545989052   0.125017562413317   1.0000000
N2   N   0.277766287628630   0.388875544226688   0.125123941639612   1.0000000
N2   N   0.277773296605214   0.555546423945948   0.125049660213184   1.0000000
N2   N   0.611116314126018   0.388883094889939   0.124647460682490   1.0000000
N2   N   0.777779926998363   0.888892243797350   0.125003092447649   1.0000000
N2   N   0.944445128357315   0.388887284016634   0.125007547631904   1.0000000
N2   N   0.111105787123692   0.555550778639946   0.624987384059994   1.0000000
N2   N   0.277773296605214   0.055560205992601   0.624950339786817   1.0000000
N2   N   0.777774571366667   0.555553952350001   0.625042182844886   1.0000000
N2   N   0.611107647076471   0.055555535292743   0.624984913966993   1.0000000
N2   N   0.944442549309749   0.055554985120242   0.624980758338239   1.0000000
N2   N   0.055632174120564   0.111166275337477   0.375000000000000   1.0000000
N2   N   0.555541697195629   0.613061693345451   0.375000000000000   1.0000000
N2   N   0.388897775960535   0.112164775669192   0.375000000000000   1.0000000
N2   N   0.888556294447354   0.610944813890348   0.375000000000000   1.0000000
N2   N   0.722252116671620   0.110983590733382   0.375000000000000   1.0000000
N2   N   0.055552718001507   0.777776915218925   0.875000000000000   1.0000000
N2   N   0.388886991302312   0.777778570115697   0.875000000000000   1.0000000
N2   N   0.222218875832414   0.277776104582875   0.875000000000000   1.0000000
N2   N   0.722217353398630   0.777776213775276   0.875000000000000   1.0000000
N2   N   0.555549055130488   0.277773196976643   0.875000000000000   1.0000000
N2   N   0.888886369923280   0.277776989767125   0.875000000000000   1.0000000
N2   N   0.222273757412965   0.777803545373150   0.375000000000000   1.0000000
N2   N   0.055632174120564   0.277799232116422   0.375000000000000   1.0000000
N2   N   0.389562818695295   0.281127629100684   0.375000000000000   1.0000000
N2   N   0.555382538126250   0.778364797378571   0.375000000000000   1.0000000
N2   N   0.889210520702347   0.778174389783251   0.375000000000000   1.0000000
N2   N   0.722399752861257   0.277409826636744   0.375000000000000   1.0000000
N2   N   0.055552005879980   0.944442312394429   0.875000000000000   1.0000000
N2   N   0.388886991302312   0.944441754519950   0.875000000000000   1.0000000
N2   N   0.222218192916624   0.444443819036785   0.875000000000000   1.0000000
N2   N   0.555550399050811   0.444441866192070   0.875000000000000   1.0000000
N2   N   0.722215642186756   0.944441538510414   0.875000000000000   1.0000000
N2   N   0.888888239450903   0.444443040262403   0.875000000000000   1.0000000
N2   N   0.056010707696385   0.444408037584825   0.375000000000000   1.0000000
N2   N   0.222404741178223   0.944817553523320   0.375000000000000   1.0000000
N2   N   0.555382226663151   0.944357779998240   0.375000000000000   1.0000000
N2   N   0.389562818695295   0.441768522927947   0.375000000000000   1.0000000
N2   N   0.889095307483925   0.944662395637960   0.375000000000000   1.0000000
N2   N   0.722211211808502   0.443752559017265   0.375000000000000   1.0000000
N2   N   0.222218265599129   0.611110364928791   0.875000000000000   1.0000000
N2   N   0.055551214788282   0.111107757002750   0.875000000000000   1.0000000
N2   N   0.555549055130488   0.611109191487181   0.875000000000000   1.0000000
N2   N   0.388885433972495   0.111106854665428   0.875000000000000   1.0000000
N2   N   0.888887897182928   0.611110615258135   0.875000000000000   1.0000000
N2   N   0.055620036897419   0.611081819530952   0.375000000000000   1.0000000
N2   N   0.722215642186756   0.111107437009678   0.875000000000000   1.0000000
N2   N   0.223017919114752   0.112141519387406   0.375000000000000   1.0000000
N2   N   0.388897775960535   0.610066333624687   0.375000000000000   1.0000000
N2   N   0.722211211808502   0.611791986124572   0.375000000000000   1.0000000
N2   N   0.555382538126250   0.110351074081015   0.375000000000000   1.0000000
N2   N   0.388885433972495   0.611111912640410   0.875000000000000   1.0000000
N2   N   0.889004096703571   0.111168715018457   0.375000000000000   1.0000000
N2   N   0.222219675903353   0.777776504618344   0.875000000000000   1.0000000
N2   N   0.055551214788282   0.277776791118868   0.875000000000000   1.0000000
N2   N   0.388885068697983   0.277773602862078   0.875000000000000   1.0000000
N2   N   0.555549788029017   0.777776689420506   0.875000000000000   1.0000000
N2   N   0.888888239450903   0.777778532521835   0.875000000000000   1.0000000
N2   N   0.722217353398630   0.277774472956691   0.875000000000000   1.0000000
N2   N   0.055620036897419   0.777871550699802   0.375000000000000   1.0000000
N2   N   0.388803975256059   0.777495900810558   0.375000000000000   1.0000000
N2   N   0.221758547074242   0.277545940203789   0.375000000000000   1.0000000
N2   N   0.722399752861257   0.778323259557849   0.375000000000000   1.0000000
N2   N   0.555541697195629   0.275813337183513   0.375000000000000   1.0000000
N2   N   0.889095307483925   0.277766245179301   0.375000000000000   1.0000000
N2   N   0.055552005879980   0.444443026818879   0.875000000000000   1.0000000
N2   N   0.222218265599129   0.944441234003674   0.875000000000000   1.0000000
N2   N   0.555549802952661   0.944441568142995   0.875000000000000   1.0000000
N2   N   0.388885068697983   0.444444799169241   0.875000000000000   1.0000000
N2   N   0.888886369923280   0.944442713489491   0.875000000000000   1.0000000
N2   N   0.056010707696385   0.944936003444889   0.375000000000000   1.0000000
N2   N   0.722219197110359   0.444442553372634   0.875000000000000   1.0000000
N2   N   0.388803975256059   0.944641407778837   0.375000000000000   1.0000000
N2   N   0.223017919114752   0.444209733060682   0.375000000000000   1.0000000
N2   N   0.222404741178223   0.610920520988240   0.375000000000000   1.0000000
N2   N   0.722252116671620   0.944601859271573   0.375000000000000   1.0000000
N2   N   0.889210520702347   0.444369464252432   0.375000000000000   1.0000000
N2   N   0.055552718001507   0.611109136115917   0.875000000000000   1.0000000
N2   N   0.222218192916624   0.111107707213175   0.875000000000000   1.0000000
N2   N   0.722219197110359   0.611109977071060   0.875000000000000   1.0000000
N2   N   0.555549788029017   0.111106431941847   0.875000000000000   1.0000000
N2   N   0.888884711800684   0.111109022567013   0.875000000000000   1.0000000
B2   B   0.111501645372904   0.055994386311920   0.375000000000000   1.0000000
B2   B   0.610598363781656   0.557485459974211   0.375000000000000   1.0000000
B2   B   0.444364977749180   0.055902586764560   0.375000000000000   1.0000000
B2   B   0.944304071915061   0.555519187426249   0.375000000000000   1.0000000
B2   B   0.777846644832240   0.055589989082788   0.375000000000000   1.0000000
B2   B   0.111101341375028   0.722217337354178   0.875000000000000   1.0000000
B2   B   0.444446248901705   0.722222806207821   0.875000000000000   1.0000000
B2   B   0.277790335173381   0.222226128962818   0.875000000000000   1.0000000
B2   B   0.777766259321686   0.722205306114538   0.875000000000000   1.0000000
B2   B   0.611106909753690   0.222230701211075   0.875000000000000   1.0000000
B2   B   0.944432005715332   0.222220039877034   0.875000000000000   1.0000000
B2   B   0.277764086014663   0.722121890429283   0.375000000000000   1.0000000
B2   B   0.110579421619102   0.221956377476215   0.375000000000000   1.0000000
B2   B   0.445430934399061   0.223536787167685   0.375000000000000   1.0000000
B2   B   0.611339133323811   0.723655050222243   0.375000000000000   1.0000000
B2   B   0.944304071915061   0.722118217822148   0.375000000000000   1.0000000
B2   B   0.777950458340498   0.222108386466380   0.375000000000000   1.0000000
B2   B   0.111102367191576   0.888878782398129   0.875000000000000   1.0000000
B2   B   0.444443704620697   0.888888518977013   0.875000000000000   1.0000000
B2   B   0.277790335173381   0.388897539543892   0.875000000000000   1.0000000
B2   B   0.611109192892833   0.388899558380098   0.875000000000000   1.0000000
B2   B   0.777766942841854   0.888875625388282   0.875000000000000   1.0000000
B2   B   0.944432615935820   0.388890953112848   0.875000000000000   1.0000000
B2   B   0.111501645372904   0.388840592394313   0.375000000000000   1.0000000
B2   B   0.277764086014663   0.888975528918707   0.375000000000000   1.0000000
B2   B   0.611107867931661   0.889230093799930   0.375000000000000   1.0000000
B2   B   0.944736100013390   0.889159523447902   0.375000000000000   1.0000000
B2   B   0.777962847880994   0.388788135019768   0.375000000000000   1.0000000
B2   B   0.277780936728029   0.555561989079349   0.875000000000000   1.0000000
B2   B   0.111104847604198   0.055546414070201   0.875000000000000   1.0000000
B2   B   0.611109192892833   0.555542967846064   0.875000000000000   1.0000000
B2   B   0.444446248901705   0.055556776027220   0.875000000000000   1.0000000
B2   B   0.944430559352209   0.555552941229644   0.875000000000000   1.0000000
B2   B   0.111226272559658   0.555542135208810   0.375000000000000   1.0000000
B2   B   0.777766097144346   0.055549715238841   0.875000000000000   1.0000000
B2   B   0.277987374459356   0.055941629886089   0.375000000000000   1.0000000
B2   B   0.445430934399061   0.555227480564712   0.375000000000000   1.0000000
B2   B   0.776896598353819   0.555114965843578   0.375000000000000   1.0000000
B2   B   0.611107867931661   0.055211107465060   0.375000000000000   1.0000000
B2   B   0.444456387444974   0.555558480572336   0.875000000000000   1.0000000
B2   B   0.944442164381515   0.055560976743630   0.375000000000000   1.0000000
B2   B   0.277776069744175   0.722223556127738   0.875000000000000   1.0000000
B2   B   0.111106278543797   0.222219805938563   0.875000000000000   1.0000000
B2   B   0.444456387444974   0.222231240205973   0.875000000000000   1.0000000
B2   B   0.611106909753690   0.722209541875943   0.875000000000000   1.0000000
B2   B   0.944430559352209   0.722210951455899   0.875000000000000   1.0000000
B2   B   0.777766942841854   0.222224650786901   0.875000000000000   1.0000000
B2   B   0.111108708259138   0.722221020796234   0.375000000000000   1.0000000
B2   B   0.444364977749180   0.721795724317957   0.375000000000000   1.0000000
B2   B   0.277617607192423   0.223037562006409   0.375000000000000   1.0000000
B2   B   0.777962847880994   0.722508046194555   0.375000000000000   1.0000000
B2   B   0.611339133323811   0.221017416434896   0.375000000000000   1.0000000
B2   B   0.944442164381515   0.222214520971220   0.375000000000000   1.0000000
B2   B   0.111104847604198   0.388891766867326   0.875000000000000   1.0000000
B2   B   0.277776069744175   0.888885846949767   0.875000000000000   1.0000000
B2   B   0.611104938269387   0.888882889609577   0.875000000000000   1.0000000
B2   B   0.444468707240226   0.388901020286777   0.875000000000000   1.0000000
B2   B   0.944432615935820   0.888874996156300   0.875000000000000   1.0000000
B2   B   0.111226272559658   0.889017470684175   0.375000000000000   1.0000000
B2   B   0.777766259321686   0.388894286540476   0.875000000000000   1.0000000
B2   B   0.444296131726734   0.888814732530031   0.375000000000000   1.0000000
B2   B   0.277617607192423   0.387913378519343   0.375000000000000   1.0000000
B2   B   0.277987374459356   0.555379077906603   0.375000000000000   1.0000000
B2   B   0.610598363781656   0.386446237140773   0.375000000000000   1.0000000
B2   B   0.777950458340498   0.889175405207447   0.375000000000000   1.0000000
B2   B   0.944736100013390   0.388909909898817   0.375000000000000   1.0000000
B2   B   0.111102367191576   0.555556918126776   0.875000000000000   1.0000000
B2   B   0.277780936728029   0.055552280982017   0.875000000000000   1.0000000
B2   B   0.777763441532792   0.555548387433064   0.875000000000000   1.0000000
B2   B   0.611104938269387   0.055555381993139   0.875000000000000   1.0000000
B2   B   0.944432005715332   0.055545299171634   0.875000000000000   1.0000000
B2   B   0.055529496426669   0.111089063097326   0.124993719866835   1.0000000
B2   B   0.555614044211165   0.611071589411373   0.124946493965964   1.0000000
B2   B   0.388913726525751   0.111147347582881   0.125006967660825   1.0000000
B2   B   0.888831006127037   0.611082169730190   0.125025001172617   1.0000000
B2   B   0.722225345089057   0.111122921406704   0.125000541220921   1.0000000
B2   B   0.055517990771004   0.777752136453688   0.624998144987415   1.0000000
B2   B   0.388891278219771   0.777773179202973   0.625000798107599   1.0000000
B2   B   0.222204551921391   0.277768942627363   0.625030168160816   1.0000000
B2   B   0.722225619963544   0.777750991347392   0.624995873381495   1.0000000
B2   B   0.555614044211165   0.277875788133127   0.625053506034036   1.0000000
B2   B   0.888874536527783   0.277786055576982   0.625000748341545   1.0000000
B2   B   0.222203783151374   0.777768558242354   0.124998228907794   1.0000000
B2   B   0.055529496426669   0.277773766662679   0.124993719866835   1.0000000
B2   B   0.388957435353372   0.277868060544253   0.124744422992032   1.0000000
B2   B   0.555572803946941   0.777762510371905   0.125002085726574   1.0000000
B2   B   0.888854232201580   0.777744499769321   0.125009637792176   1.0000000
B2   B   0.722225619963544   0.277807961949488   0.125004126618505   1.0000000
B2   B   0.055529468958104   0.944415834234308   0.625000685435310   1.0000000
B2   B   0.388891278219771   0.944451432350133   0.625000798107599   1.0000000
B2   B   0.222211481966157   0.444445886017320   0.624999003828996   1.0000000
B2   B   0.555570041677797   0.444451687505563   0.624814257751193   1.0000000
B2   B   0.722225345089057   0.944435757015689   0.624999458779079   1.0000000
B2   B   0.888854232201580   0.444443065765595   0.624990362207824   1.0000000
B2   B   0.055529468958104   0.444446968057125   0.124999314564690   1.0000000
B2   B   0.222207739714503   0.944432433922292   0.124998263540835   1.0000000
B2   B   0.555562660869507   0.944447997101418   0.124996503176076   1.0000000
B2   B   0.388957435353372   0.444422708142455   0.124744422992032   1.0000000
B2   B   0.888874536527783   0.944421814284136   0.124999251658455   1.0000000
B2   B   0.722173717913587   0.444441889661205   0.124989670866294   1.0000000
B2   B   0.222207739714503   0.611108639125547   0.625001736459165   1.0000000
B2   B   0.055529496426669   0.111089063097326   0.625006280133165   1.0000000
B2   B   0.555614044211165   0.611071589411373   0.625053506034036   1.0000000
B2   B   0.388913726525751   0.111147347582881   0.624993032339175   1.0000000
B2   B   0.888831006127037   0.611082169730190   0.624974998827384   1.0000000
B2   B   0.055517990771004   0.611099187650652   0.125001855012585   1.0000000
B2   B   0.722225345089057   0.111122921406704   0.624999458779079   1.0000000
B2   B   0.222211481966157   0.111098929282172   0.125000996171005   1.0000000
B2   B   0.388913726525751   0.611099712276213   0.125006967660825   1.0000000
B2   B   0.722173717913587   0.611065161585717   0.124989670866294   1.0000000
B2   B   0.555572803946941   0.111143626908371   0.125002085726574   1.0000000
B2   B   0.388913726525751   0.611099712276213   0.624993032339175   1.0000000
B2   B   0.888876176895567   0.111104755114455   0.124998745854265   1.0000000
B2   B   0.222203783151374   0.777768558242354   0.625001771092205   1.0000000
B2   B   0.055529496426669   0.277773766662679   0.625006280133165   1.0000000
B2   B   0.388957435353372   0.277868060544253   0.625255577007968   1.0000000
B2   B   0.555572803946941   0.777762510371905   0.624997914273426   1.0000000
B2   B   0.888854232201580   0.777744499769321   0.624990362207824   1.0000000
B2   B   0.722225619963544   0.277807961949488   0.624995873381495   1.0000000
B2   B   0.055517990771004   0.777752136453688   0.125001855012585   1.0000000
B2   B   0.388891278219771   0.777773179202973   0.124999201892401   1.0000000
B2   B   0.222204551921391   0.277768942627363   0.124969831839184   1.0000000
B2   B   0.722225619963544   0.777750991347392   0.125004126618505   1.0000000
B2   B   0.555614044211165   0.277875788133127   0.124946493965964   1.0000000
B2   B   0.888874536527783   0.277786055576982   0.124999251658455   1.0000000
B2   B   0.055529468958104   0.444446968057125   0.625000685435310   1.0000000
B2   B   0.222207739714503   0.944432433922292   0.625001736459165   1.0000000
B2   B   0.555562660869507   0.944447997101418   0.625003496823924   1.0000000
B2   B   0.388957435353372   0.444422708142455   0.625255577007968   1.0000000
B2   B   0.888874536527783   0.944421814284136   0.625000748341545   1.0000000
B2   B   0.055529468958104   0.944415834234308   0.124999314564690   1.0000000
B2   B   0.722173717913587   0.444441889661205   0.625010329133707   1.0000000
B2   B   0.388891278219771   0.944451432350133   0.124999201892401   1.0000000
B2   B   0.222211481966157   0.444445886017320   0.125000996171005   1.0000000
B2   B   0.222207739714503   0.611108639125547   0.124998263540835   1.0000000
B2   B   0.555570041677797   0.444451687505563   0.125185742248807   1.0000000
B2   B   0.722225345089057   0.944435757015689   0.125000541220921   1.0000000
B2   B   0.888854232201580   0.444443065765595   0.125009637792176   1.0000000
B2   B   0.055517990771004   0.611099187650652   0.624998144987415   1.0000000
B2   B   0.222211481966157   0.111098929282172   0.624999003828996   1.0000000
B2   B   0.722173717913587   0.611065161585717   0.625010329133707   1.0000000
B2   B   0.555572803946941   0.111143626908371   0.624997914273426   1.0000000
B2   B   0.888876176895567   0.111104755114455   0.625001254145735   1.0000000


