data_1
_audit_creation_method   'vasp2cif'
_cell_length_a    14.93631414619966
_cell_length_b    14.936314146199727
_cell_length_c    13.341276283792837
_cell_angle_alpha    90.0
_cell_angle_beta    90.0
_cell_angle_gamma    119.99999999999984

_symmetry_space_group_name_H-M    'P 1'
loop_
_atom_site_label
_atom_site_type_symbol
_atom_site_fract_x
_atom_site_fract_y
_atom_site_fract_z
_atom_site_occupancy
O2   O   0.444444444444443   0.388888888888886   0.375000000000000   1.0000000
N2   N   0.111114453661669   0.055550052112396   0.125012367524277   1.0000000
N2   N   0.611103289525127   0.555555064392141   0.125285253441703   1.0000000
N2   N   0.444435598450726   0.055550052112396   0.125012367524277   1.0000000
N2   N   0.944451977937474   0.555562926066728   0.124956501422401   1.0000000
N2   N   0.777777777777779   0.055555555555557   0.124938122633462   1.0000000
N2   N   0.111111111111114   0.722222222222221   0.625062186425660   1.0000000
N2   N   0.444435598450726   0.722218879671666   0.624987632475723   1.0000000
N2   N   0.277778268941194   0.222230043808209   0.624714746558297   1.0000000
N2   N   0.777783281220939   0.722218879671666   0.624987632475723   1.0000000
N2   N   0.611114491186653   0.222218842146683   0.624980302105697   1.0000000
N2   N   0.944445837669527   0.222229487259380   0.625042883320528   1.0000000
N2   N   0.277770407266608   0.722222385204082   0.124956501422401   1.0000000
N2   N   0.111104350960038   0.222218842146683   0.125019697894304   1.0000000
N2   N   0.444451774867015   0.222230043808209   0.125285253441703   1.0000000
N2   N   0.611114491186653   0.722228982373297   0.125019697894304   1.0000000
N2   N   0.944451977937474   0.722222385204082   0.124956501422401   1.0000000
N2   N   0.777783649589854   0.222229487259380   0.124957116679472   1.0000000
N2   N   0.111110948129254   0.888881355395855   0.625043498577598   1.0000000
N2   N   0.444431437096116   0.888882385214722   0.625042146708393   1.0000000
N2   N   0.277778268941194   0.388881558466314   0.624714746558297   1.0000000
N2   N   0.611103289525127   0.388881558466314   0.624714746558297   1.0000000
N2   N   0.777783649589854   0.888887495663802   0.625042883320528   1.0000000
N2   N   0.944450948118607   0.388901896237213   0.625042146708393   1.0000000
N2   N   0.111114453661669   0.388897734882602   0.125012367524277   1.0000000
N2   N   0.277770407266608   0.888881355395855   0.124956501422401   1.0000000
N2   N   0.611103846073956   0.888887495663802   0.124957116679472   1.0000000
N2   N   0.444444444444443   0.388888888888886   0.125704893323674   1.0000000
N2   N   0.944450948118607   0.888882385214722   0.124957853291607   1.0000000
N2   N   0.777783281220939   0.388897734882602   0.125012367524277   1.0000000
N2   N   0.277775323173186   0.555558010160148   0.624958686685316   1.0000000
N2   N   0.111114453661669   0.055550052112396   0.624987632475723   1.0000000
N2   N   0.611103289525127   0.555555064392141   0.624714746558297   1.0000000
N2   N   0.444435598450726   0.055550052112396   0.624987632475723   1.0000000
N2   N   0.944451977937474   0.555562926066728   0.625043498577598   1.0000000
N2   N   0.111110948129254   0.555562926066728   0.124956501422401   1.0000000
N2   N   0.777777777777779   0.055555555555557   0.625061877366539   1.0000000
N2   N   0.277775323173186   0.055550646346374   0.125041313314684   1.0000000
N2   N   0.444451774867015   0.555555064392141   0.125285253441703   1.0000000
N2   N   0.777782686986963   0.555558010160148   0.125041313314684   1.0000000
N2   N   0.611103846073956   0.055549683743482   0.124957116679472   1.0000000
N2   N   0.444451774867015   0.555555064392141   0.624714746558297   1.0000000
N2   N   0.944445837669527   0.055549683743482   0.124957116679472   1.0000000
N2   N   0.277770407266608   0.722222385204082   0.625043498577598   1.0000000
N2   N   0.111104350960038   0.222218842146683   0.624980302105697   1.0000000
N2   N   0.444451774867015   0.222230043808209   0.624714746558297   1.0000000
N2   N   0.611114491186653   0.722228982373297   0.624980302105697   1.0000000
N2   N   0.944451977937474   0.722222385204082   0.625043498577598   1.0000000
N2   N   0.777783649589854   0.222229487259380   0.625042883320528   1.0000000
N2   N   0.111111111111114   0.722222222222221   0.124937813574340   1.0000000
N2   N   0.444435598450726   0.722218879671666   0.125012367524277   1.0000000
N2   N   0.277778268941194   0.222230043808209   0.125285253441703   1.0000000
N2   N   0.777783281220939   0.722218879671666   0.125012367524277   1.0000000
N2   N   0.611114491186653   0.222218842146683   0.125019697894304   1.0000000
N2   N   0.944445837669527   0.222229487259380   0.124957116679472   1.0000000
N2   N   0.111114453661669   0.388897734882602   0.624987632475723   1.0000000
N2   N   0.277770407266608   0.888881355395855   0.625043498577598   1.0000000
N2   N   0.611103846073956   0.888887495663802   0.625042883320528   1.0000000
N2   N   0.444444444444443   0.388888888888886   0.624295106676326   1.0000000
N2   N   0.944450948118607   0.888882385214722   0.625042146708393   1.0000000
N2   N   0.111110948129254   0.888881355395855   0.124956501422401   1.0000000
N2   N   0.777783281220939   0.388897734882602   0.624987632475723   1.0000000
N2   N   0.444431437096116   0.888882385214722   0.124957853291607   1.0000000
N2   N   0.277778268941194   0.388881558466314   0.125285253441703   1.0000000
N2   N   0.277775323173186   0.555558010160148   0.125041313314684   1.0000000
N2   N   0.611103289525127   0.388881558466314   0.125285253441703   1.0000000
N2   N   0.777783649589854   0.888887495663802   0.124957116679472   1.0000000
N2   N   0.944450948118607   0.388901896237213   0.124957853291607   1.0000000
N2   N   0.111110948129254   0.555562926066728   0.625043498577598   1.0000000
N2   N   0.277775323173186   0.055550646346374   0.624958686685316   1.0000000
N2   N   0.777782686986963   0.555558010160148   0.624958686685316   1.0000000
N2   N   0.611103846073956   0.055549683743482   0.625042883320528   1.0000000
N2   N   0.944445837669527   0.055549683743482   0.625042883320528   1.0000000
N2   N   0.055430584091425   0.111025293668942   0.375000000000000   1.0000000
N2   N   0.555995214154891   0.611990428309782   0.375000000000000   1.0000000
N2   N   0.389035522141805   0.112287506400850   0.375000000000000   1.0000000
N2   N   0.888421548415412   0.610877440874378   0.375000000000000   1.0000000
N2   N   0.722231440004901   0.111101893328435   0.375000000000000   1.0000000
N2   N   0.055554683221386   0.777778650111949   0.875000000000000   1.0000000
N2   N   0.388892074911252   0.777780496996924   0.875000000000000   1.0000000
N2   N   0.222220062671302   0.277776698002319   0.875000000000000   1.0000000
N2   N   0.722223909584987   0.777781654000773   0.875000000000000   1.0000000
N2   N   0.555556635331017   0.277776698002319   0.875000000000000   1.0000000
N2   N   0.888888473052800   0.277776946105607   0.875000000000000   1.0000000
N2   N   0.222324811159767   0.777829072246551   0.375000000000000   1.0000000
N2   N   0.055430584091425   0.277738623755819   0.375000000000000   1.0000000
N2   N   0.388063353173460   0.276126706346927   0.375000000000000   1.0000000
N2   N   0.555594709577517   0.777902749241910   0.375000000000000   1.0000000
N2   N   0.888525093816084   0.777503071170993   0.375000000000000   1.0000000
N2   N   0.722308039664393   0.277738623755819   0.375000000000000   1.0000000
N2   N   0.055552836336412   0.944444911247664   0.875000000000000   1.0000000
N2   N   0.388892074911252   0.944444911247664   0.875000000000000   1.0000000
N2   N   0.222221129699519   0.444441358322002   0.875000000000000   1.0000000
N2   N   0.555553346332338   0.444443339832833   0.875000000000000   1.0000000
N2   N   0.722222881371400   0.944445762742799   0.875000000000000   1.0000000
N2   N   0.888888422085664   0.444441258422077   0.875000000000000   1.0000000
N2   N   0.055830262162342   0.444355355978425   0.375000000000000   1.0000000
N2   N   0.222455892458958   0.944911784917916   0.375000000000000   1.0000000
N2   N   0.555517279876390   0.944425306604859   0.375000000000000   1.0000000
N2   N   0.388063353173460   0.445269980159869   0.375000000000000   1.0000000
N2   N   0.888908026728470   0.944425306604859   0.375000000000000   1.0000000
N2   N   0.721045826932486   0.444297811191524   0.375000000000000   1.0000000
N2   N   0.222222789961422   0.611110543371913   0.875000000000000   1.0000000
N2   N   0.055551679332562   0.111109423748348   0.875000000000000   1.0000000
N2   N   0.555556635331017   0.611113270662034   0.875000000000000   1.0000000
N2   N   0.388891975011327   0.111113104710853   0.875000000000000   1.0000000
N2   N   0.888887753410485   0.611110543371913   0.875000000000000   1.0000000
N2   N   0.055504261086784   0.611008522173568   0.375000000000000   1.0000000
N2   N   0.722222881371400   0.111110451961936   0.875000000000000   1.0000000
N2   N   0.223251984259038   0.112287506400850   0.375000000000000   1.0000000
N2   N   0.389035522141805   0.610081349074298   0.375000000000000   1.0000000
N2   N   0.721045826932486   0.610081349074298   0.375000000000000   1.0000000
N2   N   0.555594709577517   0.111025293668942   0.375000000000000   1.0000000
N2   N   0.388891975011327   0.611112203633816   0.875000000000000   1.0000000
N2   N   0.888870453323527   0.111101893328435   0.375000000000000   1.0000000
N2   N   0.222223966890563   0.777778650111949   0.875000000000000   1.0000000
N2   N   0.055551679332562   0.277775588917550   0.875000000000000   1.0000000
N2   N   0.388889993500495   0.277779987000997   0.875000000000000   1.0000000
N2   N   0.555557744415786   0.777781654000773   0.875000000000000   1.0000000
N2   N   0.888888422085664   0.777780496996924   0.875000000000000   1.0000000
N2   N   0.722223909584987   0.277775588917550   0.875000000000000   1.0000000
N2   N   0.055504261086784   0.777829072246551   0.375000000000000   1.0000000
N2   N   0.388977977354904   0.777503071170993   0.375000000000000   1.0000000
N2   N   0.221342905023554   0.277338119178445   0.375000000000000   1.0000000
N2   N   0.722308039664393   0.777902749241910   0.375000000000000   1.0000000
N2   N   0.555995214154891   0.277338119178445   0.375000000000000   1.0000000
N2   N   0.888908026728470   0.277816053456946   0.375000000000000   1.0000000
N2   N   0.055552836336412   0.444441258422077   0.875000000000000   1.0000000
N2   N   0.222222789961422   0.944445579922844   0.875000000000000   1.0000000
N2   N   0.555556387227728   0.944444860280529   0.875000000000000   1.0000000
N2   N   0.388889993500495   0.444443339832833   0.875000000000000   1.0000000
N2   N   0.888888473052800   0.944444860280529   0.875000000000000   1.0000000
N2   N   0.055830262162342   0.944808239517245   0.375000000000000   1.0000000
N2   N   0.722220228622483   0.444441358322002   0.875000000000000   1.0000000
N2   N   0.388977977354904   0.944808239517245   0.375000000000000   1.0000000
N2   N   0.223251984259038   0.444297811191524   0.375000000000000   1.0000000
N2   N   0.222455892458958   0.610877440874378   0.375000000000000   1.0000000
N2   N   0.557206626986408   0.445269980159869   0.375000000000000   1.0000000
N2   N   0.722231440004901   0.944462880009801   0.375000000000000   1.0000000
N2   N   0.888525093816084   0.444355355978425   0.375000000000000   1.0000000
N2   N   0.055554683221386   0.611109366442773   0.875000000000000   1.0000000
N2   N   0.222221129699519   0.111113104710853   0.875000000000000   1.0000000
N2   N   0.722220228622483   0.611112203633816   0.875000000000000   1.0000000
N2   N   0.555557744415786   0.111109423748348   0.875000000000000   1.0000000
N2   N   0.888887570590529   0.111110451961936   0.875000000000000   1.0000000
B2   B   0.111049274205792   0.055738398434870   0.375000000000000   1.0000000
B2   B   0.610789411708023   0.557533345698670   0.375000000000000   1.0000000
B2   B   0.444689124229078   0.055738398434870   0.375000000000000   1.0000000
B2   B   0.944376670783019   0.555510748058100   0.375000000000000   1.0000000
B2   B   0.777777777777779   0.055555555555557   0.375000000000000   1.0000000
B2   B   0.111111111111114   0.722222222222221   0.875000000000000   1.0000000
B2   B   0.444451502525932   0.722244711878240   0.875000000000000   1.0000000
B2   B   0.277754113957774   0.222202971681587   0.875000000000000   1.0000000
B2   B   0.777793209352308   0.722244711878240   0.875000000000000   1.0000000
B2   B   0.611127025501560   0.222206307831777   0.875000000000000   1.0000000
B2   B   0.944428465544483   0.222212755496076   0.875000000000000   1.0000000
B2   B   0.277822585275235   0.722199256058254   0.375000000000000   1.0000000
B2   B   0.109568505947961   0.221450919640645   0.375000000000000   1.0000000
B2   B   0.446743933990647   0.222543921625314   0.375000000000000   1.0000000
B2   B   0.611882413692691   0.723764827385375   0.375000000000000   1.0000000
B2   B   0.944376670783019   0.722199256058254   0.375000000000000   1.0000000
B2   B   0.777971543358081   0.222072972722241   0.375000000000000   1.0000000
B2   B   0.111104073344861   0.888881380366048   0.875000000000000   1.0000000
B2   B   0.444450644465917   0.888891988899622   0.875000000000000   1.0000000
B2   B   0.277754113957774   0.388884475609516   0.875000000000000   1.0000000
B2   B   0.611130361651749   0.388884475609516   0.875000000000000   1.0000000
B2   B   0.777784289951593   0.888904867788845   0.875000000000000   1.0000000
B2   B   0.944441344433706   0.388882688867412   0.875000000000000   1.0000000
B2   B   0.111049274205792   0.388644209104251   0.375000000000000   1.0000000
B2   B   0.277822585275235   0.888956662550310   0.375000000000000   1.0000000
B2   B   0.611260360611095   0.889231903969168   0.375000000000000   1.0000000
B2   B   0.944415605246636   0.888917728086693   0.375000000000000   1.0000000
B2   B   0.777594934898465   0.388644209104251   0.375000000000000   1.0000000
B2   B   0.277767984068419   0.555565349264917   0.875000000000000   1.0000000
B2   B   0.111088621455096   0.055540123981028   0.875000000000000   1.0000000
B2   B   0.611130361651749   0.555579219375561   0.875000000000000   1.0000000
B2   B   0.444451502525932   0.055540123981028   0.875000000000000   1.0000000
B2   B   0.944451952967280   0.555556026312142   0.875000000000000   1.0000000
B2   B   0.111134077275082   0.555510748058100   0.375000000000000   1.0000000
B2   B   0.777777777777779   0.055555555555557   0.875000000000000   1.0000000
B2   B   0.277816914093635   0.055633828187271   0.375000000000000   1.0000000
B2   B   0.446743933990648   0.557533345698670   0.375000000000000   1.0000000
B2   B   0.777699505146065   0.555516419239700   0.375000000000000   1.0000000
B2   B   0.611260360611095   0.055361789975256   0.375000000000000   1.0000000
B2   B   0.444448857723812   0.555579219375561   0.875000000000000   1.0000000
B2   B   0.944101429364161   0.055361789975256   0.375000000000000   1.0000000
B2   B   0.277777307021194   0.722229259988474   0.875000000000000   1.0000000
B2   B   0.111079282330225   0.222206307831777   0.875000000000000   1.0000000
B2   B   0.444448857723812   0.222202971681587   0.875000000000000   1.0000000
B2   B   0.611127025501560   0.722254051003111   0.875000000000000   1.0000000
B2   B   0.944451952967280   0.722229259988474   0.875000000000000   1.0000000
B2   B   0.777784289951593   0.222212755496076   0.875000000000000   1.0000000
B2   B   0.111111111111114   0.722222222222221   0.375000000000000   1.0000000
B2   B   0.444689124229078   0.722284059127543   0.375000000000000   1.0000000
B2   B   0.275799987634667   0.222543921625314   0.375000000000000   1.0000000
B2   B   0.777594934898465   0.722284059127543   0.375000000000000   1.0000000
B2   B   0.611882413692691   0.221450919640645   0.375000000000000   1.0000000
B2   B   0.944101429364161   0.222072972722241   0.375000000000000   1.0000000
B2   B   0.111088621455096   0.388881830807397   0.875000000000000   1.0000000
B2   B   0.277777307021194   0.888881380366048   0.875000000000000   1.0000000
B2   B   0.611120577837260   0.888904867788845   0.875000000000000   1.0000000
B2   B   0.444444444444443   0.388888888888886   0.875000000000000   1.0000000
B2   B   0.944441344433706   0.888891988899622   0.875000000000000   1.0000000
B2   B   0.111134077275082   0.888956662550310   0.375000000000000   1.0000000
B2   B   0.777793209352308   0.388881830807397   0.875000000000000   1.0000000
B2   B   0.444502122840057   0.888917728086693   0.375000000000000   1.0000000
B2   B   0.275799987634667   0.386589399342681   0.375000000000000   1.0000000
B2   B   0.277816914093635   0.555516419239700   0.375000000000000   1.0000000
B2   B   0.610789411708023   0.386589399342681   0.375000000000000   1.0000000
B2   B   0.777971543358081   0.889231903969168   0.375000000000000   1.0000000
B2   B   0.944415605246636   0.388831210493271   0.375000000000000   1.0000000
B2   B   0.111104073344861   0.555556026312142   0.875000000000000   1.0000000
B2   B   0.277767984068419   0.055535968136837   0.875000000000000   1.0000000
B2   B   0.777797365196498   0.555565349264917   0.875000000000000   1.0000000
B2   B   0.611120577837260   0.055549043381743   0.875000000000000   1.0000000
B2   B   0.944428465544483   0.055549043381743   0.875000000000000   1.0000000
B2   B   0.055487902485405   0.111049316235766   0.125042600325464   1.0000000
B2   B   0.555612120620808   0.611224241241617   0.124978437980984   1.0000000
B2   B   0.388844731176934   0.110984235842460   0.125035623565284   1.0000000
B2   B   0.888981503034383   0.611157418183862   0.125062659469312   1.0000000
B2   B   0.722232247380054   0.111101085953282   0.125076420701383   1.0000000
B2   B   0.055570562985516   0.777762770347819   0.624916209587503   1.0000000
B2   B   0.388850106451593   0.777802340410622   0.624930790667967   1.0000000
B2   B   0.222109092091718   0.277721212712527   0.625021562019017   1.0000000
B2   B   0.722284017097569   0.777845430847930   0.624957399674536   1.0000000
B2   B   0.555612120620808   0.277721212712527   0.625021562019017   1.0000000
B2   B   0.888895994503165   0.277791989006338   0.624922813437474   1.0000000
B2   B   0.222192207362304   0.777762770347819   0.125083790412497   1.0000000
B2   B   0.055487902485405   0.277771919582975   0.125042600325464   1.0000000
B2   B   0.388852778290131   0.277705556580270   0.125057033566131   1.0000000
B2   B   0.555561413750360   0.777845430847930   0.125042600325464   1.0000000
B2   B   0.888952233959023   0.777802340410622   0.125069209332033   1.0000000
B2   B   0.722284017097569   0.277771919582975   0.125042600325464   1.0000000
B2   B   0.055530992922714   0.944381099374306   0.624930790667967   1.0000000
B2   B   0.388850106451593   0.944381099374306   0.624930790667967   1.0000000
B2   B   0.222139504665518   0.444488602156394   0.624964376434716   1.0000000
B2   B   0.555627776753066   0.444480555043197   0.624942966433869   1.0000000
B2   B   0.722232247380054   0.944464494760107   0.624923579298617   1.0000000
B2   B   0.888952233959023   0.444483226881736   0.624930790667967   1.0000000
B2   B   0.055530992922714   0.444483226881736   0.125069209332033   1.0000000
B2   B   0.222175915149472   0.944351830298945   0.125062659469312   1.0000000
B2   B   0.555541344326998   0.944437338830163   0.125077186562525   1.0000000
B2   B   0.388852778290131   0.444480555043197   0.125057033566131   1.0000000
B2   B   0.888895994503165   0.944437338830163   0.125077186562525   1.0000000
B2   B   0.722349097490875   0.444488602156394   0.125035623565284   1.0000000
B2   B   0.222175915149472   0.611157418183862   0.624937340530688   1.0000000
B2   B   0.055487902485405   0.111049316235766   0.624957399674536   1.0000000
B2   B   0.555612120620808   0.611224241241617   0.625021562019017   1.0000000
B2   B   0.388844731176934   0.110984235842460   0.624964376434716   1.0000000
B2   B   0.888981503034383   0.611157418183862   0.624937340530688   1.0000000
B2   B   0.055570562985516   0.611141125971031   0.125083790412497   1.0000000
B2   B   0.722232247380054   0.111101085953282   0.624923579298617   1.0000000
B2   B   0.222139504665518   0.110984235842460   0.125035623565284   1.0000000
B2   B   0.388844731176934   0.611193828667818   0.125035623565284   1.0000000
B2   B   0.722349097490875   0.611193828667818   0.125035623565284   1.0000000
B2   B   0.555561413750360   0.111049316235766   0.125042600325464   1.0000000
B2   B   0.388844731176934   0.611193828667818   0.624964376434716   1.0000000
B2   B   0.888868838573222   0.111101085953282   0.125076420701383   1.0000000
B2   B   0.222192207362304   0.777762770347819   0.624916209587503   1.0000000
B2   B   0.055487902485405   0.277771919582975   0.624957399674536   1.0000000
B2   B   0.388852778290131   0.277705556580270   0.624942966433869   1.0000000
B2   B   0.555561413750360   0.777845430847930   0.624957399674536   1.0000000
B2   B   0.888952233959023   0.777802340410622   0.624930790667967   1.0000000
B2   B   0.722284017097569   0.277771919582975   0.624957399674536   1.0000000
B2   B   0.055570562985516   0.777762770347819   0.125083790412497   1.0000000
B2   B   0.388850106451593   0.777802340410622   0.125069209332033   1.0000000
B2   B   0.222109092091718   0.277721212712527   0.124978437980984   1.0000000
B2   B   0.722284017097569   0.777845430847930   0.125042600325464   1.0000000
B2   B   0.555612120620808   0.277721212712527   0.124978437980984   1.0000000
B2   B   0.888895994503165   0.277791989006338   0.125077186562525   1.0000000
B2   B   0.055530992922714   0.444483226881736   0.624930790667967   1.0000000
B2   B   0.222175915149472   0.944351830298945   0.624937340530688   1.0000000
B2   B   0.555541344326998   0.944437338830163   0.624922813437474   1.0000000
B2   B   0.388852778290131   0.444480555043197   0.624942966433869   1.0000000
B2   B   0.888895994503165   0.944437338830163   0.624922813437474   1.0000000
B2   B   0.055530992922714   0.944381099374306   0.125069209332033   1.0000000
B2   B   0.722349097490875   0.444488602156394   0.624964376434716   1.0000000
B2   B   0.388850106451593   0.944381099374306   0.125069209332033   1.0000000
B2   B   0.222139504665518   0.444488602156394   0.125035623565284   1.0000000
B2   B   0.222175915149472   0.611157418183862   0.125062659469312   1.0000000
B2   B   0.555627776753066   0.444480555043197   0.125057033566131   1.0000000
B2   B   0.722232247380054   0.944464494760107   0.125076420701383   1.0000000
B2   B   0.888952233959023   0.444483226881736   0.125069209332033   1.0000000
B2   B   0.055570562985516   0.611141125971031   0.624916209587503   1.0000000
B2   B   0.222139504665518   0.110984235842460   0.624964376434716   1.0000000
B2   B   0.722349097490875   0.611193828667818   0.624964376434716   1.0000000
B2   B   0.555561413750360   0.111049316235766   0.624957399674536   1.0000000
B2   B   0.888868838573222   0.111101085953282   0.624923579298617   1.0000000


