data_1
_audit_creation_method   'vasp2cif'
_cell_length_a    14.93631414619966
_cell_length_b    14.936314146199727
_cell_length_c    13.341276283792837
_cell_angle_alpha    90.0
_cell_angle_beta    90.0
_cell_angle_gamma    119.99999999999984

_symmetry_space_group_name_H-M    'P 1'
loop_
_atom_site_label
_atom_site_type_symbol
_atom_site_fract_x
_atom_site_fract_y
_atom_site_fract_z
_atom_site_occupancy
C2   C   0.437364896501576   0.385349114917452   0.375000000000000   1.0000000
N2   N   0.111083651409727   0.055550352852669   0.125055647812233   1.0000000
N2   N   0.611111539933658   0.555529898020989   0.124627748006990   1.0000000
N2   N   0.444427888706357   0.055564408888733   0.125030472382325   1.0000000
N2   N   0.944448061805392   0.555554180188000   0.125028711895739   1.0000000
N2   N   0.777731367133376   0.055532350233356   0.125046664030469   1.0000000
N2   N   0.111108686557480   0.722221009945403   0.624984866373526   1.0000000
N2   N   0.444427888706357   0.722196813150960   0.624969527617677   1.0000000
N2   N   0.277741648390941   0.222220543427896   0.624957935543114   1.0000000
N2   N   0.777770394432806   0.722207236543435   0.624976839557347   1.0000000
N2   N   0.611084151844224   0.222243219122975   0.624903554896139   1.0000000
N2   N   0.944399556445186   0.222200904044908   0.624976980487488   1.0000000
N2   N   0.277769580073934   0.722211064150309   0.125002337148699   1.0000000
N2   N   0.111054431278920   0.222193882306124   0.125040319609223   1.0000000
N2   N   0.444438058659758   0.222242311150572   0.124891701848373   1.0000000
N2   N   0.611084151844224   0.722174266054577   0.125096445103861   1.0000000
N2   N   0.944448061805392   0.722227214950730   0.125028711895739   1.0000000
N2   N   0.777743664422772   0.222218221173920   0.125057861882763   1.0000000
N2   N   0.111104247152063   0.888895135402914   0.624987724464371   1.0000000
N2   N   0.444425812846832   0.888879573090080   0.624997801014528   1.0000000
N2   N   0.277741648390941   0.388854438296374   0.624957935543114   1.0000000
N2   N   0.611111539933658   0.388914975245997   0.625372251993009   1.0000000
N2   N   0.777743664422772   0.888858776582180   0.624942138117237   1.0000000
N2   N   0.944429150403421   0.388879031151529   0.624978694531092   1.0000000
N2   N   0.111083651409727   0.388866631890387   0.125055647812233   1.0000000
N2   N   0.277769580073934   0.888891849256954   0.125002337148699   1.0000000
N2   N   0.611075886974313   0.888859191082483   0.125042985665821   1.0000000
N2   N   0.444383765643427   0.388858549488378   0.123906213433748   1.0000000
N2   N   0.944429150403421   0.888883452585221   0.125021305468907   1.0000000
N2   N   0.777770394432806   0.388896491222699   0.125023160442652   1.0000000
N2   N   0.277765422274679   0.555530730519842   0.624972239593349   1.0000000
N2   N   0.111083651409727   0.055550352852669   0.624944352187768   1.0000000
N2   N   0.611111539933658   0.555529898020989   0.625372251993009   1.0000000
N2   N   0.444427888706357   0.055564408888733   0.624969527617677   1.0000000
N2   N   0.944448061805392   0.555554180188000   0.624971288104261   1.0000000
N2   N   0.111104247152063   0.555542445082478   0.125012275535630   1.0000000
N2   N   0.777731367133376   0.055532350233356   0.624953335969531   1.0000000
N2   N   0.277765422274679   0.055568025088171   0.125027760406652   1.0000000
N2   N   0.444438058659758   0.555529080842520   0.124891701848373   1.0000000
N2   N   0.777791252039892   0.555562292686614   0.125030969399343   1.0000000
N2   N   0.611075886974313   0.055550029225159   0.125042985665821   1.0000000
N2   N   0.444438058659758   0.555529080842520   0.625108298151627   1.0000000
N2   N   0.944399556445186   0.055531985733614   0.125023019512512   1.0000000
N2   N   0.277769580073934   0.722211064150309   0.624997662851301   1.0000000
N2   N   0.111054431278920   0.222193882306124   0.624959680390777   1.0000000
N2   N   0.444438058659758   0.222242311150572   0.625108298151627   1.0000000
N2   N   0.611084151844224   0.722174266054577   0.624903554896139   1.0000000
N2   N   0.944448061805392   0.722227214950730   0.624971288104261   1.0000000
N2   N   0.777743664422772   0.222218221173920   0.624942138117237   1.0000000
N2   N   0.111108686557480   0.722221009945403   0.125015133626474   1.0000000
N2   N   0.444427888706357   0.722196813150960   0.125030472382325   1.0000000
N2   N   0.277741648390941   0.222220543427896   0.125042064456885   1.0000000
N2   N   0.777770394432806   0.722207236543435   0.125023160442652   1.0000000
N2   N   0.611084151844224   0.222243219122975   0.125096445103861   1.0000000
N2   N   0.944399556445186   0.222200904044908   0.125023019512512   1.0000000
N2   N   0.111083651409727   0.388866631890387   0.624944352187768   1.0000000
N2   N   0.277769580073934   0.888891849256954   0.624997662851301   1.0000000
N2   N   0.611075886974313   0.888859191082483   0.624957014334180   1.0000000
N2   N   0.444383765643427   0.388858549488378   0.626093786566252   1.0000000
N2   N   0.944429150403421   0.888883452585221   0.624978694531092   1.0000000
N2   N   0.111104247152063   0.888895135402914   0.125012275535630   1.0000000
N2   N   0.777770394432806   0.388896491222699   0.624976839557347   1.0000000
N2   N   0.444425812846832   0.888879573090080   0.125002198985471   1.0000000
N2   N   0.277741648390941   0.388854438296374   0.125042064456885   1.0000000
N2   N   0.277765422274679   0.555530730519842   0.125027760406652   1.0000000
N2   N   0.611111539933658   0.388914975245997   0.124627748006990   1.0000000
N2   N   0.777743664422772   0.888858776582180   0.125057861882763   1.0000000
N2   N   0.944429150403421   0.388879031151529   0.125021305468907   1.0000000
N2   N   0.111104247152063   0.555542445082478   0.624987724464371   1.0000000
N2   N   0.277765422274679   0.055568025088171   0.624972239593349   1.0000000
N2   N   0.777791252039892   0.555562292686614   0.624969030600656   1.0000000
N2   N   0.611075886974313   0.055550029225159   0.624957014334180   1.0000000
N2   N   0.944399556445186   0.055531985733614   0.624976980487488   1.0000000
N2   N   0.053579750376686   0.109891458018169   0.375000000000000   1.0000000
N2   N   0.556160853650612   0.600503270157228   0.375000000000000   1.0000000
N2   N   0.389974842923275   0.114934905296973   0.375000000000000   1.0000000
N2   N   0.892665521969444   0.612999427651392   0.375000000000000   1.0000000
N2   N   0.721197986542691   0.111539601426048   0.375000000000000   1.0000000
N2   N   0.055553602255877   0.777777307329219   0.875000000000000   1.0000000
N2   N   0.388887025929187   0.777778376872792   0.875000000000000   1.0000000
N2   N   0.222218512379843   0.277775922856590   0.875000000000000   1.0000000
N2   N   0.722220454215241   0.777777657073414   0.875000000000000   1.0000000
N2   N   0.555553147867684   0.277774220469463   0.875000000000000   1.0000000
N2   N   0.888888545440495   0.277778728667077   0.875000000000000   1.0000000
N2   N   0.224234519111233   0.778783926222286   0.375000000000000   1.0000000
N2   N   0.053579750376686   0.277021625691853   0.375000000000000   1.0000000
N2   N   0.386032129646137   0.279546427623229   0.375000000000000   1.0000000
N2   N   0.555893494427442   0.773725969487084   0.375000000000000   1.0000000
N2   N   0.889689954111741   0.777549267282726   0.375000000000000   1.0000000
N2   N   0.721480126652769   0.279915195972151   0.375000000000000   1.0000000
N2   N   0.055552683880611   0.944442333183596   0.875000000000000   1.0000000
N2   N   0.388887025929187   0.944441982389732   0.875000000000000   1.0000000
N2   N   0.222217841675690   0.444444149115657   0.875000000000000   1.0000000
N2   N   0.555556523063234   0.444444928198281   0.875000000000000   1.0000000
N2   N   0.722218252386511   0.944442456006389   0.875000000000000   1.0000000
N2   N   0.888890809765059   0.444444789730192   0.875000000000000   1.0000000
N2   N   0.055566288827428   0.444508172035171   0.375000000000000   1.0000000
N2   N   0.223742596144340   0.946010401841906   0.375000000000000   1.0000000
N2   N   0.555860002744900   0.944596668039115   0.375000000000000   1.0000000
N2   N   0.386032129646137   0.439819035356243   0.375000000000000   1.0000000
N2   N   0.887577679554799   0.943031097269132   0.375000000000000   1.0000000
N2   N   0.724330357112264   0.447720520718586   0.375000000000000   1.0000000
N2   N   0.222218055826638   0.611110437408039   0.875000000000000   1.0000000
N2   N   0.055552931869729   0.111108421893182   0.875000000000000   1.0000000
N2   N   0.555553147867684   0.611112260731557   0.875000000000000   1.0000000
N2   N   0.388885666677743   0.111106628592555   0.875000000000000   1.0000000
N2   N   0.888890756850134   0.611112045091738   0.875000000000000   1.0000000
N2   N   0.057811857635010   0.612008718975690   0.375000000000000   1.0000000
N2   N   0.722218252386511   0.111109129713457   0.875000000000000   1.0000000
N2   N   0.221388027129279   0.111134800432949   0.375000000000000   1.0000000
N2   N   0.389974842923275   0.608373270959644   0.375000000000000   1.0000000
N2   N   0.724330357112264   0.609943169727014   0.375000000000000   1.0000000
N2   N   0.555893494427442   0.115500858273694   0.375000000000000   1.0000000
N2   N   0.388885666677743   0.611112371418531   0.875000000000000   1.0000000
N2   N   0.887129906050818   0.110231619692081   0.375000000000000   1.0000000
N2   N   0.222219183983996   0.777776258658667   0.875000000000000   1.0000000
N2   N   0.055552931869729   0.277777843309883   0.875000000000000   1.0000000
N2   N   0.388884881401150   0.277772232264163   0.875000000000000   1.0000000
N2   N   0.555551769396151   0.777777698657015   0.875000000000000   1.0000000
N2   N   0.888890809765059   0.777779353368202   0.875000000000000   1.0000000
N2   N   0.722220454215241   0.277776130475161   0.875000000000000   1.0000000
N2   N   0.057811857635010   0.779136471992657   0.375000000000000   1.0000000
N2   N   0.390329813478467   0.777343034258656   0.375000000000000   1.0000000
N2   N   0.218931890667936   0.276132612000636   0.375000000000000   1.0000000
N2   N   0.721480126652769   0.774898264013954   0.375000000000000   1.0000000
N2   N   0.556160853650612   0.288990916826719   0.375000000000000   1.0000000
N2   N   0.887577679554799   0.277879915619003   0.375000000000000   1.0000000
N2   N   0.055552683880610   0.444443684030342   0.875000000000000   1.0000000
N2   N   0.222218055826638   0.944440951751935   0.875000000000000   1.0000000
N2   N   0.555551152369454   0.944442242851390   0.875000000000000   1.0000000
N2   N   0.388884881401150   0.444445982470322   0.875000000000000   1.0000000
N2   N   0.888888545440495   0.944443150106755   0.875000000000000   1.0000000
N2   N   0.055566288827428   0.944391450125585   0.375000000000000   1.0000000
N2   N   0.722224268522347   0.444444504627590   0.875000000000000   1.0000000
N2   N   0.390329813478467   0.946320112553147   0.375000000000000   1.0000000
N2   N   0.221388027129279   0.443586560029666   0.375000000000000   1.0000000
N2   N   0.223742596144340   0.611065527635770   0.375000000000000   1.0000000
N2   N   0.721197986542691   0.942991718449978   0.375000000000000   1.0000000
N2   N   0.889689954111741   0.445474020162350   0.375000000000000   1.0000000
N2   N   0.055553602255877   0.611109628259993   0.875000000000000   1.0000000
N2   N   0.222217841675690   0.111107025893369   0.875000000000000   1.0000000
N2   N   0.722224268522347   0.611113097228093   0.875000000000000   1.0000000
N2   N   0.555551769396151   0.111107404072472   0.875000000000000   1.0000000
N2   N   0.888887388475941   0.111110360904642   0.875000000000000   1.0000000
B2   B   0.110118722510794   0.055207472817286   0.375000000000000   1.0000000
B2   B   0.613764015679545   0.542954459888485   0.375000000000000   1.0000000
B2   B   0.444966019446064   0.058370928817199   0.375000000000000   1.0000000
B2   B   0.946953077364733   0.556580215267036   0.375000000000000   1.0000000
B2   B   0.776066897896936   0.054700115615136   0.375000000000000   1.0000000
B2   B   0.111108736054514   0.722221034693921   0.875000000000000   1.0000000
B2   B   0.444440053082545   0.722215887338957   0.875000000000000   1.0000000
B2   B   0.277792293198769   0.222230016068072   0.875000000000000   1.0000000
B2   B   0.777768536885200   0.722207629060015   0.875000000000000   1.0000000
B2   B   0.611100534826402   0.222228004329333   0.875000000000000   1.0000000
B2   B   0.944443788370825   0.222224340469234   0.875000000000000   1.0000000
B2   B   0.279302012254057   0.722409909463193   0.375000000000000   1.0000000
B2   B   0.108208785496469   0.220771059414899   0.375000000000000   1.0000000
B2   B   0.444962197331809   0.227178007052420   0.375000000000000   1.0000000
B2   B   0.610461665751018   0.715219746037465   0.375000000000000   1.0000000
B2   B   0.946953077364733   0.723706195431032   0.375000000000000   1.0000000
B2   B   0.776319749917494   0.222928947787688   0.375000000000000   1.0000000
B2   B   0.111110441029799   0.888887002411129   0.875000000000000   1.0000000
B2   B   0.444439618856895   0.888886476095112   0.875000000000000   1.0000000
B2   B   0.277792293198769   0.388895610464025   0.875000000000000   1.0000000
B2   B   0.611101179707335   0.388894469044926   0.875000000000000   1.0000000
B2   B   0.777770876456996   0.888879268076726   0.875000000000000   1.0000000
B2   B   0.944441793794450   0.388892666576111   0.875000000000000   1.0000000
B2   B   0.110118722510794   0.388244583026836   0.375000000000000   1.0000000
B2   B   0.279302012254057   0.890225436124194   0.375000000000000   1.0000000
B2   B   0.610296357824735   0.886506750745905   0.375000000000000   1.0000000
B2   B   0.944303622698577   0.888471041671617   0.375000000000000   1.0000000
B2   B   0.778346670821553   0.390715074201498   0.375000000000000   1.0000000
B2   B   0.277782094209893   0.555557340337386   0.875000000000000   1.0000000
B2   B   0.111114749510891   0.055555216378143   0.875000000000000   1.0000000
B2   B   0.611101179707335   0.555540043995736   0.875000000000000   1.0000000
B2   B   0.444440053082545   0.055557499076924   0.875000000000000   1.0000000
B2   B   0.944439010569627   0.555555384286922   0.875000000000000   1.0000000
B2   B   0.112578754547300   0.555807999120718   0.375000000000000   1.0000000
B2   B   0.777771587686857   0.055552460510096   0.875000000000000   1.0000000
B2   B   0.278690727642295   0.057313163682562   0.375000000000000   1.0000000
B2   B   0.444962197331809   0.551117523612725   0.375000000000000   1.0000000
B2   B   0.782718367450025   0.558025850391680   0.375000000000000   1.0000000
B2   B   0.610296357824735   0.057122940412159   0.375000000000000   1.0000000
B2   B   0.444446105145588   0.555548750267439   0.875000000000000   1.0000000
B2   B   0.942481561626223   0.054236215784630   0.375000000000000   1.0000000
B2   B   0.277777180960880   0.722221586609498   0.875000000000000   1.0000000
B2   B   0.111118328426604   0.222225830879967   0.875000000000000   1.0000000
B2   B   0.444446105145588   0.222230688211485   0.875000000000000   1.0000000
B2   B   0.611100534826402   0.722205863830398   0.875000000000000   1.0000000
B2   B   0.944439010569627   0.722216959616040   0.875000000000000   1.0000000
B2   B   0.777770876456996   0.222224941713599   0.875000000000000   1.0000000
B2   B   0.113211123653589   0.723272228493459   0.375000000000000   1.0000000
B2   B   0.444966019446064   0.719928423962201   0.375000000000000   1.0000000
B2   B   0.274716811232900   0.221521651636715   0.375000000000000   1.0000000
B2   B   0.778346670821553   0.720964929953382   0.375000000000000   1.0000000
B2   B   0.610461665751018   0.228575253046883   0.375000000000000   1.0000000
B2   B   0.942481561626223   0.221578679174928   0.375000000000000   1.0000000
B2   B   0.111114749510891   0.388892866466076   0.875000000000000   1.0000000
B2   B   0.277777180960880   0.888888927684710   0.875000000000000   1.0000000
B2   B   0.611101648586530   0.888881094298994   0.875000000000000   1.0000000
B2   B   0.444455044195544   0.388894188764436   0.875000000000000   1.0000000
B2   B   0.944441793794450   0.888882460551668   0.875000000000000   1.0000000
B2   B   0.112578754547300   0.890104088759911   0.375000000000000   1.0000000
B2   B   0.777768536885200   0.388894241158514   0.875000000000000   1.0000000
B2   B   0.445020662388913   0.889176997861120   0.375000000000000   1.0000000
B2   B   0.274716811232900   0.386528492929514   0.375000000000000   1.0000000
B2   B   0.278690727642295   0.554710897293068   0.375000000000000   1.0000000
B2   B   0.613764015679545   0.404142889124388   0.375000000000000   1.0000000
B2   B   0.776319749917494   0.886724135463136   0.375000000000000   1.0000000
B2   B   0.944303622698577   0.389165914360289   0.375000000000000   1.0000000
B2   B   0.111110441029799   0.555556771951998   0.875000000000000   1.0000000
B2   B   0.277782094209893   0.055558087205841   0.875000000000000   1.0000000
B2   B   0.777765630952475   0.555549482142905   0.875000000000000   1.0000000
B2   B   0.611101648586530   0.055553887620866   0.875000000000000   1.0000000
B2   B   0.944443788370825   0.055552781234927   0.875000000000000   1.0000000
B2   B   0.055516048561410   0.111091464331324   0.125000195544377   1.0000000
B2   B   0.555543803550676   0.611024568415925   0.124929452596485   1.0000000
B2   B   0.388900680450860   0.111164850026054   0.125006482513632   1.0000000
B2   B   0.888871126793122   0.611102230063232   0.125008465369236   1.0000000
B2   B   0.722179494213724   0.111102478362862   0.125017934501318   1.0000000
B2   B   0.055551564309624   0.777778644916351   0.625001024917027   1.0000000
B2   B   0.388884862366323   0.777761730474734   0.624995593690960   1.0000000
B2   B   0.222195456848242   0.277764395090789   0.625026931721892   1.0000000
B2   B   0.722188922208844   0.777724232138641   0.624976587237978   1.0000000
B2   B   0.555543803550676   0.277852568468087   0.625070547403515   1.0000000
B2   B   0.888855295538594   0.277773016873554   0.624996667846412   1.0000000
B2   B   0.222224028733594   0.777778681033465   0.124995734963942   1.0000000
B2   B   0.055516048561410   0.277757917563422   0.125000195544377   1.0000000
B2   B   0.388926489228524   0.277868177005234   0.124659840944884   1.0000000
B2   B   0.555532646320143   0.777728529671436   0.125043677896334   1.0000000
B2   B   0.888863197211921   0.777755885181359   0.125007153261144   1.0000000
B2   B   0.722188922208844   0.277798023403540   0.125023412762022   1.0000000
B2   B   0.055538929825660   0.944437754554613   0.624997462549258   1.0000000
B2   B   0.388884862366323   0.944456465224925   0.624995593690960   1.0000000
B2   B   0.222215704287487   0.444422839445257   0.624984249411774   1.0000000
B2   B   0.555461589983249   0.444397461658289   0.625187679830773   1.0000000
B2   B   0.722179494213724   0.944410349184197   0.624982065498682   1.0000000
B2   B   0.888863197211921   0.444440645363899   0.624992846738855   1.0000000
B2   B   0.055538929825660   0.444434508604375   0.125002537450742   1.0000000
B2   B   0.222223184245674   0.944459428796122   0.125000338071366   1.0000000
B2   B   0.555528470828348   0.944430902080838   0.125014640535770   1.0000000
B2   B   0.388926489228524   0.444391645556626   0.124659840944884   1.0000000
B2   B   0.888855295538594   0.944415611998375   0.125003332153588   1.0000000
B2   B   0.722164056555674   0.444441775212746   0.124948016596768   1.0000000
B2   B   0.222223184245674   0.611097088782888   0.624999661928633   1.0000000
B2   B   0.055516048561410   0.111091464331324   0.624999804455622   1.0000000
B2   B   0.555543803550676   0.611024568415925   0.625070547403515   1.0000000
B2   B   0.388900680450860   0.111164850026054   0.624993517486368   1.0000000
B2   B   0.888871126793122   0.611102230063232   0.624991534630764   1.0000000
B2   B   0.055551564309624   0.611106252726610   0.124998975082974   1.0000000
B2   B   0.722179494213724   0.111102478362862   0.624982065498682   1.0000000
B2   B   0.222215704287487   0.111126198175566   0.125015750588226   1.0000000
B2   B   0.388900680450860   0.611069163758149   0.125006482513632   1.0000000
B2   B   0.722164056555674   0.611055614676263   0.124948016596768   1.0000000
B2   B   0.555532646320143   0.111137449982042   0.125043677896334   1.0000000
B2   B   0.388900680450860   0.611069163758149   0.624993517486368   1.0000000
B2   B   0.888845203005450   0.111089268169396   0.124999624581768   1.0000000
B2   B   0.222224028733594   0.777778681033465   0.625004265036058   1.0000000
B2   B   0.055516048561410   0.277757917563422   0.624999804455622   1.0000000
B2   B   0.388926489228524   0.277868177005234   0.625340159055116   1.0000000
B2   B   0.555532646320143   0.777728529671436   0.624956322103666   1.0000000
B2   B   0.888863197211921   0.777755885181359   0.624992846738855   1.0000000
B2   B   0.722188922208844   0.277798023403540   0.624976587237978   1.0000000
B2   B   0.055551564309624   0.777778644916351   0.124998975082974   1.0000000
B2   B   0.388884862366323   0.777761730474734   0.125004406309041   1.0000000
B2   B   0.222195456848242   0.277764395090789   0.124973068278108   1.0000000
B2   B   0.722188922208844   0.777724232138641   0.125023412762022   1.0000000
B2   B   0.555543803550676   0.277852568468087   0.124929452596485   1.0000000
B2   B   0.888855295538594   0.277773016873554   0.125003332153588   1.0000000
B2   B   0.055538929825660   0.444434508604375   0.624997462549258   1.0000000
B2   B   0.222223184245674   0.944459428796122   0.624999661928633   1.0000000
B2   B   0.555528470828348   0.944430902080838   0.624985359464231   1.0000000
B2   B   0.388926489228524   0.444391645556626   0.625340159055116   1.0000000
B2   B   0.888855295538594   0.944415611998375   0.624996667846412   1.0000000
B2   B   0.055538929825660   0.944437754554613   0.125002537450742   1.0000000
B2   B   0.722164056555674   0.444441775212746   0.625051983403232   1.0000000
B2   B   0.388884862366323   0.944456465224925   0.125004406309041   1.0000000
B2   B   0.222215704287487   0.444422839445257   0.125015750588226   1.0000000
B2   B   0.222223184245674   0.611097088782888   0.125000338071366   1.0000000
B2   B   0.555461589983249   0.444397461658289   0.124812320169227   1.0000000
B2   B   0.722179494213724   0.944410349184197   0.125017934501318   1.0000000
B2   B   0.888863197211921   0.444440645363899   0.125007153261144   1.0000000
B2   B   0.055551564309624   0.611106252726610   0.625001024917027   1.0000000
B2   B   0.222215704287487   0.111126198175566   0.624984249411774   1.0000000
B2   B   0.722164056555674   0.611055614676263   0.625051983403232   1.0000000
B2   B   0.555532646320143   0.111137449982042   0.624956322103666   1.0000000
B2   B   0.888845203005450   0.111089268169396   0.625000375418232   1.0000000


