data_1
_audit_creation_method   'vasp2cif'
_cell_length_a    14.93631414619966
_cell_length_b    14.936314146199727
_cell_length_c    13.341276283792837
_cell_angle_alpha    90.0
_cell_angle_beta    90.0
_cell_angle_gamma    119.99999999999984

_symmetry_space_group_name_H-M    'P 1'
loop_
_atom_site_label
_atom_site_type_symbol
_atom_site_fract_x
_atom_site_fract_y
_atom_site_fract_z
_atom_site_occupancy
C2   C   0.609268362424884   0.385560845699100   0.375000000000000   1.0000000
C2   C   0.444070657634503   0.386095109038011   0.375000000000000   1.0000000
C2   C   0.555310433673140   0.438781199365519   0.375000000000000   1.0000000
N2   N   0.111118329856543   0.055545619104522   0.125285924231123   1.0000000
N2   N   0.611104157829478   0.555536937111459   0.125403818328079   1.0000000
N2   N   0.444430503112243   0.055527504196933   0.125454287948384   1.0000000
N2   N   0.944435264240945   0.555546801202373   0.126092813275867   1.0000000
N2   N   0.777762923065831   0.055547848462288   0.125183932700075   1.0000000
N2   N   0.111109588203352   0.722206559469143   0.624722623181760   1.0000000
N2   N   0.444433164417139   0.722204082795181   0.624715314924286   1.0000000
N2   N   0.277808551601555   0.222233912131896   0.624404468662854   1.0000000
N2   N   0.777760579807242   0.722199757343473   0.624307242888553   1.0000000
N2   N   0.611091724975424   0.222207990178137   0.624110668940197   1.0000000
N2   N   0.944443360895724   0.222238331400942   0.624755847906107   1.0000000
N2   N   0.277777177922357   0.722213561553139   0.125166894863151   1.0000000
N2   N   0.111125812691152   0.222236544598633   0.125318870836040   1.0000000
N2   N   0.444448123219285   0.222217873862311   0.125559786704694   1.0000000
N2   N   0.611095437244099   0.722198808028306   0.125393031338847   1.0000000
N2   N   0.944430493106454   0.722191633557123   0.125738800917803   1.0000000
N2   N   0.777759482914109   0.222216014216971   0.125690123452715   1.0000000
N2   N   0.111107440048751   0.888865062231175   0.624799059429297   1.0000000
N2   N   0.444429495538179   0.888865381217778   0.624799227547656   1.0000000
N2   N   0.277806982420319   0.388904521715718   0.624455052371929   1.0000000
N2   N   0.611088701898067   0.388846059867768   0.625549744464590   1.0000000
N2   N   0.777765920881958   0.888878302055090   0.624824201539781   1.0000000
N2   N   0.944437744954609   0.388907445970574   0.624290896190257   1.0000000
N2   N   0.111121524570047   0.388913330198184   0.125296865209617   1.0000000
N2   N   0.277773462372519   0.888864163286703   0.125188728073420   1.0000000
N2   N   0.611088675786264   0.888867372477782   0.125208031925769   1.0000000
N2   N   0.444453275927776   0.388885153950191   0.124904082359397   1.0000000
N2   N   0.944437642232020   0.888871117553448   0.125233640803971   1.0000000
N2   N   0.777746800753990   0.388876506222759   0.126880239450782   1.0000000
N2   N   0.277784989897559   0.555562791974348   0.624657804808652   1.0000000
N2   N   0.111118329856543   0.055545619104522   0.624714075768877   1.0000000
N2   N   0.611104157829478   0.555536937111459   0.624596181671921   1.0000000
N2   N   0.444430503112243   0.055527504196933   0.624545712051614   1.0000000
N2   N   0.944435264240945   0.555546801202373   0.623907186724134   1.0000000
N2   N   0.111114614216598   0.555564572064599   0.125304648907576   1.0000000
N2   N   0.777762923065831   0.055547848462288   0.624816067299925   1.0000000
N2   N   0.277779724080080   0.055535274491444   0.125412732670761   1.0000000
N2   N   0.444445078972996   0.555536618036799   0.125511761809251   1.0000000
N2   N   0.777746789715668   0.555519814348391   0.127019604759798   1.0000000
N2   N   0.611085418776931   0.055534658204051   0.125425496331081   1.0000000
N2   N   0.444445078972996   0.555536618036799   0.624488238190749   1.0000000
N2   N   0.944445061017988   0.055555074391145   0.125154487171186   1.0000000
N2   N   0.277777177922357   0.722213561553139   0.624833105136850   1.0000000
N2   N   0.111125812691152   0.222236544598633   0.624681129163961   1.0000000
N2   N   0.444448123219285   0.222217873862311   0.624440213295307   1.0000000
N2   N   0.611095437244099   0.722198808028306   0.624606968661156   1.0000000
N2   N   0.944430493106454   0.722191633557123   0.624261199082198   1.0000000
N2   N   0.777759482914109   0.222216014216971   0.624309876547284   1.0000000
N2   N   0.111109588203352   0.722206559469143   0.125277376818239   1.0000000
N2   N   0.444433164417139   0.722204082795181   0.125284685075715   1.0000000
N2   N   0.277808551601555   0.222233912131896   0.125595531337147   1.0000000
N2   N   0.777760579807242   0.722199757343473   0.125692757111446   1.0000000
N2   N   0.611091724975424   0.222207990178137   0.125889331059804   1.0000000
N2   N   0.944443360895724   0.222238331400942   0.125244152093894   1.0000000
N2   N   0.111121524570047   0.388913330198184   0.624703134790381   1.0000000
N2   N   0.277773462372519   0.888864163286703   0.624811271926580   1.0000000
N2   N   0.611088675786264   0.888867372477782   0.624791968074230   1.0000000
N2   N   0.444453275927776   0.388885153950191   0.625095917640604   1.0000000
N2   N   0.944437642232020   0.888871117553448   0.624766359196028   1.0000000
N2   N   0.111107440048751   0.888865062231175   0.125200940570703   1.0000000
N2   N   0.777746800753990   0.388876506222759   0.623119760549219   1.0000000
N2   N   0.444429495538179   0.888865381217778   0.125200772452345   1.0000000
N2   N   0.277806982420319   0.388904521715718   0.125544947628070   1.0000000
N2   N   0.277784989897559   0.555562791974348   0.125342195191347   1.0000000
N2   N   0.611088701898067   0.388846059867768   0.124450255535411   1.0000000
N2   N   0.777765920881958   0.888878302055090   0.125175798460219   1.0000000
N2   N   0.944437744954609   0.388907445970574   0.125709103809742   1.0000000
N2   N   0.111114614216598   0.555564572064599   0.624695351092423   1.0000000
N2   N   0.277779724080080   0.055535274491444   0.624587267329239   1.0000000
N2   N   0.777746789715668   0.555519814348391   0.622980395240201   1.0000000
N2   N   0.611085418776931   0.055534658204051   0.624574503668920   1.0000000
N2   N   0.944445061017988   0.055555074391145   0.624845512828814   1.0000000
N2   N   0.055426584125700   0.111265355079178   0.375000000000000   1.0000000
N2   N   0.556316609642820   0.611276871969353   0.375000000000000   1.0000000
N2   N   0.389944427155801   0.113555321978443   0.375000000000000   1.0000000
N2   N   0.887772311624092   0.609681332943295   0.375000000000000   1.0000000
N2   N   0.721551150209173   0.111289021335591   0.375000000000000   1.0000000
N2   N   0.055557183171829   0.777786329328830   0.875000000000000   1.0000000
N2   N   0.388897006560277   0.777786170540721   0.875000000000000   1.0000000
N2   N   0.222228726705425   0.277782353685784   0.875000000000000   1.0000000
N2   N   0.722232448511247   0.777784642140460   0.875000000000000   1.0000000
N2   N   0.555559532930551   0.277780180251644   0.875000000000000   1.0000000
N2   N   0.888896340773753   0.277784295524468   0.875000000000000   1.0000000
N2   N   0.222022969326256   0.777442144326219   0.375000000000000   1.0000000
N2   N   0.055144925890787   0.277731974828020   0.375000000000000   1.0000000
N2   N   0.390257713530487   0.281378241551634   0.375000000000000   1.0000000
N2   N   0.555398033732863   0.777614022693529   0.375000000000000   1.0000000
N2   N   0.889085367730313   0.778334032613380   0.375000000000000   1.0000000
N2   N   0.720377883168256   0.277862471696919   0.375000000000000   1.0000000
N2   N   0.055560931080818   0.944456414320442   0.875000000000000   1.0000000
N2   N   0.388899426636892   0.944456653137100   0.875000000000000   1.0000000
N2   N   0.222228408504497   0.444445463101346   0.875000000000000   1.0000000
N2   N   0.555560499641350   0.444452115923300   0.875000000000000   1.0000000
N2   N   0.722233483854360   0.944453895577288   0.875000000000000   1.0000000
N2   N   0.888892990169552   0.444448657231045   0.875000000000000   1.0000000
N2   N   0.054738230281828   0.444020711484164   0.375000000000000   1.0000000
N2   N   0.222664627349688   0.945210747520862   0.375000000000000   1.0000000
N2   N   0.555134462635109   0.944529675282115   0.375000000000000   1.0000000
N2   N   0.392142192223685   0.440128975826085   0.375000000000000   1.0000000
N2   N   0.888883897677891   0.944877958659753   0.375000000000000   1.0000000
N2   N   0.222221674409335   0.611110698753861   0.875000000000000   1.0000000
N2   N   0.055562181107329   0.111117031371654   0.875000000000000   1.0000000
N2   N   0.555563252604222   0.611112447597948   0.875000000000000   1.0000000
N2   N   0.388896164080155   0.111118861579172   0.875000000000000   1.0000000
N2   N   0.888892181109507   0.611115462487485   0.875000000000000   1.0000000
N2   N   0.054899353471725   0.610527416359439   0.375000000000000   1.0000000
N2   N   0.722231306795016   0.111120572114850   0.875000000000000   1.0000000
N2   N   0.223049671678989   0.112221744543593   0.375000000000000   1.0000000
N2   N   0.389428881015829   0.608815584325527   0.375000000000000   1.0000000
N2   N   0.721569126546484   0.611309367935729   0.375000000000000   1.0000000
N2   N   0.554953170303242   0.111656952799169   0.375000000000000   1.0000000
N2   N   0.388897684017507   0.611112967474922   0.875000000000000   1.0000000
N2   N   0.888532043428509   0.111383964953535   0.375000000000000   1.0000000
N2   N   0.222223887842896   0.777784394502341   0.875000000000000   1.0000000
N2   N   0.055561481218302   0.277780598020405   0.875000000000000   1.0000000
N2   N   0.388894522931865   0.277783470985163   0.875000000000000   1.0000000
N2   N   0.555566442985992   0.777784118651155   0.875000000000000   1.0000000
N2   N   0.888896420062545   0.777788450307264   0.875000000000000   1.0000000
N2   N   0.722230774963092   0.277787390844070   0.875000000000000   1.0000000
N2   N   0.055461490244692   0.777794195527117   0.375000000000000   1.0000000
N2   N   0.388749481456365   0.776916464566143   0.375000000000000   1.0000000
N2   N   0.221820185036490   0.277324261323240   0.375000000000000   1.0000000
N2   N   0.722258820008149   0.778355932966890   0.375000000000000   1.0000000
N2   N   0.558094854396217   0.281514748918794   0.375000000000000   1.0000000
N2   N   0.887986919576758   0.277925429917587   0.375000000000000   1.0000000
N2   N   0.055556241276731   0.444444609206123   0.875000000000000   1.0000000
N2   N   0.222227888192583   0.944456242122864   0.875000000000000   1.0000000
N2   N   0.555566619219597   0.944457317152397   0.875000000000000   1.0000000
N2   N   0.388897210528755   0.444449449593104   0.875000000000000   1.0000000
N2   N   0.888900230787573   0.944455196496013   0.875000000000000   1.0000000
N2   N   0.055932007685526   0.945082340915926   0.375000000000000   1.0000000
N2   N   0.722234662091119   0.444454485536904   0.875000000000000   1.0000000
N2   N   0.388707629724012   0.944744260697047   0.375000000000000   1.0000000
N2   N   0.223332371067981   0.443517533733957   0.375000000000000   1.0000000
N2   N   0.222246083128927   0.610169304681958   0.375000000000000   1.0000000
N2   N   0.721913561049653   0.944720699558877   0.375000000000000   1.0000000
N2   N   0.885502570695149   0.444664532006485   0.375000000000000   1.0000000
N2   N   0.055552279947080   0.611110490526205   0.875000000000000   1.0000000
N2   N   0.222226788733246   0.111120281409913   0.875000000000000   1.0000000
N2   N   0.722230060711350   0.611115270648220   0.875000000000000   1.0000000
N2   N   0.555564766828801   0.111121592334925   0.875000000000000   1.0000000
N2   N   0.888899063740143   0.111117345570503   0.875000000000000   1.0000000
B2   B   0.111108436135189   0.056055771919037   0.375000000000000   1.0000000
B2   B   0.610656474069193   0.556454408979434   0.375000000000000   1.0000000
B2   B   0.443662128328741   0.055437809345751   0.375000000000000   1.0000000
B2   B   0.945361888370536   0.555891781679489   0.375000000000000   1.0000000
B2   B   0.777529438157848   0.055572757937052   0.375000000000000   1.0000000
B2   B   0.111141006590307   0.722251570790500   0.875000000000000   1.0000000
B2   B   0.444454129486151   0.722247283078095   0.875000000000000   1.0000000
B2   B   0.277741562268778   0.222202072735454   0.875000000000000   1.0000000
B2   B   0.777800829696649   0.722280221610869   0.875000000000000   1.0000000
B2   B   0.611105618261287   0.222186851698823   0.875000000000000   1.0000000
B2   B   0.944456829080178   0.222201761603129   0.875000000000000   1.0000000
B2   B   0.277706075256609   0.721661395044928   0.375000000000000   1.0000000
B2   B   0.109890241698294   0.221686014319147   0.375000000000000   1.0000000
B2   B   0.444806903736029   0.223582939335465   0.375000000000000   1.0000000
B2   B   0.611340908030955   0.723273089322914   0.375000000000000   1.0000000
B2   B   0.945466518547944   0.724431630455276   0.375000000000000   1.0000000
B2   B   0.777657559573611   0.221167377361084   0.375000000000000   1.0000000
B2   B   0.111122687644536   0.888915432976144   0.875000000000000   1.0000000
B2   B   0.444453322476970   0.888888038472552   0.875000000000000   1.0000000
B2   B   0.277757812630206   0.388887936830831   0.875000000000000   1.0000000
B2   B   0.611096120717481   0.388886713769688   0.875000000000000   1.0000000
B2   B   0.777796786971319   0.888922948253494   0.875000000000000   1.0000000
B2   B   0.944476865171245   0.388876660644437   0.875000000000000   1.0000000
B2   B   0.111203432755531   0.388419002480444   0.375000000000000   1.0000000
B2   B   0.277578012436959   0.888810693599083   0.375000000000000   1.0000000
B2   B   0.610838640094402   0.889027245664116   0.375000000000000   1.0000000
B2   B   0.945022533532888   0.890273455345826   0.375000000000000   1.0000000
B2   B   0.778020483548660   0.383951269836710   0.375000000000000   1.0000000
B2   B   0.277782645192323   0.555570598759929   0.875000000000000   1.0000000
B2   B   0.111095986226582   0.055555720337440   0.875000000000000   1.0000000
B2   B   0.611107805306417   0.555585102620291   0.875000000000000   1.0000000
B2   B   0.444433795560013   0.055524876753874   0.875000000000000   1.0000000
B2   B   0.944487503137959   0.555580327372678   0.875000000000000   1.0000000
B2   B   0.111332400150656   0.555138533084563   0.375000000000000   1.0000000
B2   B   0.777793908955500   0.055546834934704   0.875000000000000   1.0000000
B2   B   0.277966910249237   0.056147576264462   0.375000000000000   1.0000000
B2   B   0.446118482111614   0.554727390289475   0.375000000000000   1.0000000
B2   B   0.782342449735287   0.567385192510737   0.375000000000000   1.0000000
B2   B   0.610534348631032   0.055098751949512   0.375000000000000   1.0000000
B2   B   0.444440302107232   0.555584032801050   0.875000000000000   1.0000000
B2   B   0.944194001619717   0.055849519055672   0.375000000000000   1.0000000
B2   B   0.277793476171013   0.722237887610740   0.875000000000000   1.0000000
B2   B   0.111092173146338   0.222206882066559   0.875000000000000   1.0000000
B2   B   0.444415543612282   0.222189828172391   0.875000000000000   1.0000000
B2   B   0.611122469298300   0.722263569413422   0.875000000000000   1.0000000
B2   B   0.944481031980334   0.722278293793886   0.875000000000000   1.0000000
B2   B   0.777798466925005   0.222191274237260   0.875000000000000   1.0000000
B2   B   0.111352215692292   0.722376514657755   0.375000000000000   1.0000000
B2   B   0.444358102225588   0.721189983461764   0.375000000000000   1.0000000
B2   B   0.276020206775061   0.222041474991206   0.375000000000000   1.0000000
B2   B   0.778798371274122   0.725192040757339   0.375000000000000   1.0000000
B2   B   0.610089537274466   0.220593189183582   0.375000000000000   1.0000000
B2   B   0.944076736698447   0.222018348380935   0.375000000000000   1.0000000
B2   B   0.111116341020248   0.388879667133450   0.875000000000000   1.0000000
B2   B   0.277785206550254   0.888892987758026   0.875000000000000   1.0000000
B2   B   0.611123765640878   0.888901854794403   0.875000000000000   1.0000000
B2   B   0.444426384392887   0.388894131734618   0.875000000000000   1.0000000
B2   B   0.944463186198125   0.888932091203170   0.875000000000000   1.0000000
B2   B   0.111485558737197   0.889682047163899   0.375000000000000   1.0000000
B2   B   0.777802433637414   0.388881047285890   0.875000000000000   1.0000000
B2   B   0.443996839156082   0.888396866974570   0.375000000000000   1.0000000
B2   B   0.277669554638635   0.387032445036201   0.375000000000000   1.0000000
B2   B   0.278099067413173   0.554697029458654   0.375000000000000   1.0000000
B2   B   0.777959774680208   0.889926342203779   0.375000000000000   1.0000000
B2   B   0.943935792415317   0.388149329396417   0.375000000000000   1.0000000
B2   B   0.111137642379002   0.555564644324092   0.875000000000000   1.0000000
B2   B   0.277756792118220   0.055539033965932   0.875000000000000   1.0000000
B2   B   0.777802439653985   0.555595346763559   0.875000000000000   1.0000000
B2   B   0.611119594890956   0.055531067227392   0.875000000000000   1.0000000
B2   B   0.944449325372607   0.055559916023567   0.875000000000000   1.0000000
B2   B   0.055510160620112   0.111068823622461   0.124758443899812   1.0000000
B2   B   0.555533371714632   0.611218566881851   0.124708514759313   1.0000000
B2   B   0.388791396861956   0.110924966448528   0.124823147564093   1.0000000
B2   B   0.889036219875035   0.611223068816319   0.125370036993827   1.0000000
B2   B   0.722181376773525   0.110968506853764   0.124839057182918   1.0000000
B2   B   0.055668857959778   0.777834789058750   0.625202160599841   1.0000000
B2   B   0.388874218421860   0.777770118041915   0.625224220031236   1.0000000
B2   B   0.222130887680394   0.277757723798632   0.625227827490118   1.0000000
B2   B   0.722199621791326   0.777877325720784   0.625195238025645   1.0000000
B2   B   0.555526626036358   0.277721884574260   0.625795104996274   1.0000000
B2   B   0.888939105824613   0.277725104552016   0.625101777221812   1.0000000
B2   B   0.222288033993855   0.777781514363914   0.124721570109153   1.0000000
B2   B   0.055552662535366   0.277785297589400   0.124753269773266   1.0000000
B2   B   0.388817926173923   0.277744564869467   0.124264622958674   1.0000000
B2   B   0.555508558249840   0.777812900848619   0.124809936822944   1.0000000
B2   B   0.888942098550103   0.777886945415041   0.124901784581778   1.0000000
B2   B   0.722205759767510   0.277612901195611   0.125174588205543   1.0000000
B2   B   0.055560522679065   0.944427666002216   0.625261343235026   1.0000000
B2   B   0.388837039422255   0.944306400940429   0.625207574348514   1.0000000
B2   B   0.222206329514506   0.444518282746400   0.625171015284498   1.0000000
B2   B   0.555539285081308   0.444459947471923   0.625902307245501   1.0000000
B2   B   0.722179323753544   0.944418553181922   0.625275111582973   1.0000000
B2   B   0.889032830600348   0.444471723153714   0.624648957569920   1.0000000
B2   B   0.055658551395656   0.444505039330743   0.124828409617222   1.0000000
B2   B   0.222207964426976   0.944350346367434   0.124765152787541   1.0000000
B2   B   0.555488678540319   0.944334454173400   0.124802076024839   1.0000000
B2   B   0.388854846497490   0.444491036846964   0.124407201297777   1.0000000
B2   B   0.888876235426966   0.944465907437798   0.124710099697007   1.0000000
B2   B   0.722110514624836   0.444377429068460   0.125137117624228   1.0000000
B2   B   0.222285283355189   0.611186651369914   0.625233753084757   1.0000000
B2   B   0.055510160620112   0.111068823622461   0.625241556100188   1.0000000
B2   B   0.555533371714632   0.611218566881851   0.625291485240685   1.0000000
B2   B   0.388791396861956   0.110924966448528   0.625176852435906   1.0000000
B2   B   0.889036219875035   0.611223068816319   0.624629963006173   1.0000000
B2   B   0.055736203328297   0.611206506341030   0.124875906872774   1.0000000
B2   B   0.722181376773525   0.110968506853764   0.625160942817082   1.0000000
B2   B   0.222136468874705   0.110986291154155   0.124833101002413   1.0000000
B2   B   0.388858946450014   0.611196255447475   0.124846274403060   1.0000000
B2   B   0.722182865987331   0.611232228675138   0.125097364299140   1.0000000
B2   B   0.555464174667172   0.110894324465678   0.124901300915261   1.0000000
B2   B   0.388858946450014   0.611196255447475   0.625153725596940   1.0000000
B2   B   0.888871102518584   0.111065535145526   0.124713459727485   1.0000000
B2   B   0.222288033993855   0.777781514363914   0.625278429890846   1.0000000
B2   B   0.055552662535366   0.277785297589400   0.625246730226735   1.0000000
B2   B   0.388817926173923   0.277744564869467   0.625735377041325   1.0000000
B2   B   0.555508558249840   0.777812900848619   0.625190063177058   1.0000000
B2   B   0.888942098550103   0.777886945415041   0.625098215418222   1.0000000
B2   B   0.722205759767510   0.277612901195611   0.624825411794455   1.0000000
B2   B   0.055668857959778   0.777834789058750   0.124797839400160   1.0000000
B2   B   0.388874218421860   0.777770118041915   0.124775779968765   1.0000000
B2   B   0.222130887680394   0.277757723798632   0.124772172509883   1.0000000
B2   B   0.722199621791326   0.777877325720784   0.124804761974355   1.0000000
B2   B   0.555526626036358   0.277721884574260   0.124204895003727   1.0000000
B2   B   0.888939105824613   0.277725104552016   0.124898222778188   1.0000000
B2   B   0.055658551395656   0.444505039330743   0.625171590382778   1.0000000
B2   B   0.222207964426976   0.944350346367434   0.625234847212460   1.0000000
B2   B   0.555488678540319   0.944334454173400   0.625197923975161   1.0000000
B2   B   0.388854846497490   0.444491036846964   0.625592798702223   1.0000000
B2   B   0.888876235426966   0.944465907437798   0.625289900302992   1.0000000
B2   B   0.055560522679065   0.944427666002216   0.124738656764974   1.0000000
B2   B   0.722110514624836   0.444377429068460   0.624862882375772   1.0000000
B2   B   0.388837039422255   0.944306400940429   0.124792425651487   1.0000000
B2   B   0.222206329514506   0.444518282746400   0.124828984715504   1.0000000
B2   B   0.222285283355189   0.611186651369914   0.124766246915244   1.0000000
B2   B   0.555539285081308   0.444459947471923   0.124097692754499   1.0000000
B2   B   0.722179323753544   0.944418553181922   0.124724888417027   1.0000000
B2   B   0.889032830600348   0.444471723153714   0.125351042430079   1.0000000
B2   B   0.055736203328297   0.611206506341030   0.625124093127225   1.0000000
B2   B   0.222136468874705   0.110986291154155   0.625166898997586   1.0000000
B2   B   0.722182865987331   0.611232228675138   0.624902635700862   1.0000000
B2   B   0.555464174667172   0.110894324465678   0.625098699084740   1.0000000
B2   B   0.888871102518584   0.111065535145526   0.625286540272515   1.0000000


