data_1
_audit_creation_method   'vasp2cif'
_cell_length_a    17.52789999999977
_cell_length_b    17.52789999999977
_cell_length_c    15.0
_cell_angle_alpha    90.0
_cell_angle_beta    90.0
_cell_angle_gamma    119.99999999999916

_symmetry_space_group_name_H-M    'P 1'
loop_
_atom_site_label
_atom_site_type_symbol
_atom_site_fract_x
_atom_site_fract_y
_atom_site_fract_z
_atom_site_occupancy
B2   B   0.910639023418554   0.955502000420440   0.110801462815053   1.0000000
B2   B   0.909257270325183   0.096462544086579   0.110814535047618   1.0000000
B2   B   0.908795821476408   0.237942468854441   0.110749138286260   1.0000000
B2   B   0.908978068195029   0.380075753738791   0.110669366544167   1.0000000
B2   B   0.909121600606108   0.522787075541979   0.110715013329176   1.0000000
B2   B   0.909378775709230   0.665801811198964   0.110824287711978   1.0000000
B2   B   0.904907874077319   0.807591882509023   0.110719932963097   1.0000000
B2   B   0.050971320134955   0.954146564784797   0.110663896699718   1.0000000
B2   B   0.053087910071472   0.097942147481033   0.110726728434789   1.0000000
B2   B   0.051750383917298   0.238936901606296   0.110791546890804   1.0000000
B2   B   0.050558680375707   0.381007634798004   0.110681129720306   1.0000000
B2   B   0.049700306231353   0.524259569783688   0.110653357705008   1.0000000
B2   B   0.049999384086388   0.667762991084910   0.110691799383831   1.0000000
B2   B   0.049659094028003   0.810891422184497   0.110709705119337   1.0000000
B2   B   0.193551723059046   0.955323666136739   0.110666682537354   1.0000000
B2   B   0.196788964325182   0.100320374542353   0.110664386749763   1.0000000
B2   B   0.196063446169883   0.241391863853253   0.110695909909698   1.0000000
B2   B   0.192716118699013   0.381539849838961   0.110673301145691   1.0000000
B2   B   0.189663777428662   0.524805194583100   0.110668346062868   1.0000000
B2   B   0.189859123725637   0.668659364299832   0.110682270172767   1.0000000
B2   B   0.192074959892621   0.811915907589201   0.110703861095408   1.0000000
B2   B   0.335513110739746   0.955027018780470   0.110698036864987   1.0000000
B2   B   0.337546353027318   0.098991971525388   0.110709997180662   1.0000000
B2   B   0.344353926997308   0.247981730194130   0.110738504290992   1.0000000
B2   B   0.338225027247179   0.384676591974210   0.110678992156792   1.0000000
B2   B   0.328583348244025   0.525301207943604   0.110855604849745   1.0000000
B2   B   0.328335249488103   0.669389835867455   0.110896071533132   1.0000000
B2   B   0.334092716316103   0.812307102938290   0.110783243708054   1.0000000
B2   B   0.477774288473578   0.953666179245670   0.110707951186270   1.0000000
B2   B   0.479087005435255   0.095738277306322   0.110715256788577   1.0000000
B2   B   0.481193841741970   0.238688944309730   0.110755437349428   1.0000000
B2   B   0.498938549999157   0.395337791638850   0.110872573980175   1.0000000
B2   B   0.463970514010225   0.666967732626566   0.110949683401158   1.0000000
B2   B   0.476547929873052   0.811400518496187   0.110797614394251   1.0000000
B2   B   0.621026351289799   0.955645692276591   0.110800505937553   1.0000000
B2   B   0.621831799822693   0.095033201264278   0.110680057453568   1.0000000
B2   B   0.622903356961808   0.234552566326509   0.110672348159742   1.0000000
B2   B   0.625302684068848   0.372744953132892   0.110912214291037   1.0000000
B2   B   0.613871485579294   0.497189540885744   0.110854722669477   1.0000000
B2   B   0.620761272387432   0.817425579287936   0.110682710750001   1.0000000
B2   B   0.765859717233001   0.955027559985643   0.110858322084040   1.0000000
B2   B   0.765509671179250   0.095752776736270   0.110735066429678   1.0000000
B2   B   0.766000427862147   0.236686791049446   0.110668935641043   1.0000000
B2   B   0.767317573823800   0.377867365151550   0.110678316468929   1.0000000
B2   B   0.767368410737994   0.518712985009142   0.110950350415519   1.0000000
B2   B   0.764514455531903   0.656485414611818   0.110750914487708   1.0000000
B2   B   0.768877661376527   0.815520470514158   0.110647229705171   1.0000000
Sb2   Sb   0.614313246966369   0.657754469155523   0.110211392569340   1.0000000
N2   N   0.955061997596166   0.904728403295596   0.110690686970989   1.0000000
N2   N   0.958066232032940   0.050221625124633   0.110770545047083   1.0000000
N2   N   0.956631405147012   0.191087625418245   0.110812673895400   1.0000000
N2   N   0.955990400433003   0.332713919750911   0.110684367311570   1.0000000
N2   N   0.955689848989118   0.475190496309968   0.110665604660366   1.0000000
N2   N   0.956099271721700   0.618371479941327   0.110712659377987   1.0000000
N2   N   0.954392054566976   0.761590483764647   0.110731461767738   1.0000000
N2   N   0.098153457469302   0.906518567604984   0.110652111243123   1.0000000
N2   N   0.100403111889700   0.050352856397946   0.110639536140097   1.0000000
N2   N   0.100381026435030   0.192595322861362   0.110734326085761   1.0000000
N2   N   0.097784094251857   0.333457200529708   0.110707559205810   1.0000000
N2   N   0.095709465230394   0.476045181523097   0.110626123618961   1.0000000
N2   N   0.095854490575093   0.619686982782132   0.110636696357171   1.0000000
N2   N   0.097000899493165   0.763330018671723   0.110684917711305   1.0000000
N2   N   0.240299924197200   0.907271022407517   0.110671096665249   1.0000000
N2   N   0.242272707807662   0.050841553636975   0.110661989216128   1.0000000
N2   N   0.246393170896346   0.196494703452431   0.110679022269956   1.0000000
N2   N   0.241813039079531   0.335341868163126   0.110642875071564   1.0000000
N2   N   0.235123243197446   0.476053682210031   0.110651361517950   1.0000000
N2   N   0.234485712572561   0.620201507179246   0.110668388039570   1.0000000
N2   N   0.238714542967700   0.764184745767810   0.110719371554827   1.0000000
N2   N   0.382528758075229   0.907328870784741   0.110709910371683   1.0000000
N2   N   0.383906404827071   0.049973245174277   0.110702100666637   1.0000000
N2   N   0.386384180083557   0.194235814409598   0.110719382051511   1.0000000
N2   N   0.396081899265716   0.345795384180535   0.110755567506960   1.0000000
N2   N   0.374155415439314   0.477028200072171   0.110767355242154   1.0000000
N2   N   0.370550374306154   0.620655049743707   0.111168256690575   1.0000000
N2   N   0.380610075518644   0.764962915958067   0.110808407760777   1.0000000
N2   N   0.525429453815637   0.906798371336595   0.110731459650169   1.0000000
N2   N   0.526523849704459   0.048291524328620   0.110682510146249   1.0000000
N2   N   0.527875149136820   0.189796058289557   0.110697060591761   1.0000000
N2   N   0.531045265403047   0.332036882875835   0.110819416632189   1.0000000
N2   N   0.463756459755196   0.520394512034446   0.111189653724170   1.0000000
N2   N   0.491921339328014   0.607552444682739   0.110880777985901   1.0000000
N2   N   0.523839756665502   0.764076004195238   0.110749451393438   1.0000000
N2   N   0.669971448587811   0.911270269341529   0.110891098422881   1.0000000
N2   N   0.670177332086919   0.049488555068573   0.110699430486316   1.0000000
N2   N   0.670915298872742   0.188736828441152   0.110650511192350   1.0000000
N2   N   0.672951858442396   0.327643787596063   0.110680300651606   1.0000000
N2   N   0.673834373356603   0.464953097657146   0.111103773956842   1.0000000
N2   N   0.672824621976930   0.591765865174275   0.110422015520339   1.0000000
N2   N   0.678218107986190   0.783689231695110   0.110288164343466   1.0000000
N2   N   0.816773112356848   0.910050282928950   0.110879160054226   1.0000000
N2   N   0.814037228391163   0.049517117865578   0.110778608056469   1.0000000
N2   N   0.813827841709151   0.190198759816132   0.110702526598112   1.0000000
N2   N   0.814571233740498   0.331231868801541   0.110631972590607   1.0000000
N2   N   0.815275822724605   0.472741095392848   0.110726399186315   1.0000000
N2   N   0.816032318732608   0.614722651753969   0.110962881035177   1.0000000
N2   N   0.808168302705264   0.757246805566342   0.110677890898802   1.0000000


