data_1
_audit_creation_method   'vasp2cif'
_cell_length_a    14.93631414619966
_cell_length_b    14.936314146199727
_cell_length_c    13.341276283792837
_cell_angle_alpha    90.0
_cell_angle_beta    90.0
_cell_angle_gamma    119.99999999999984

_symmetry_space_group_name_H-M    'P 1'
loop_
_atom_site_label
_atom_site_type_symbol
_atom_site_fract_x
_atom_site_fract_y
_atom_site_fract_z
_atom_site_occupancy
C2   C   0.715412631697826   0.441043676190176   0.375000000000000   1.0000000
C2   C   0.605913488130776   0.384984846365720   0.375000000000000   1.0000000
C2   C   0.442162226934854   0.386356339437551   0.375000000000000   1.0000000
C2   C   0.551783978806331   0.439131959807716   0.375000000000000   1.0000000
N2   N   0.111118293645068   0.055546101768744   0.125159708580429   1.0000000
N2   N   0.611111154970009   0.555521911991031   0.125180259889620   1.0000000
N2   N   0.444432259639850   0.055537088412472   0.125225264384674   1.0000000
N2   N   0.944430393875512   0.555542903275670   0.125299244753313   1.0000000
N2   N   0.777781385752990   0.055553359868020   0.125116296955477   1.0000000
N2   N   0.111099809261901   0.722203695940289   0.624857315047796   1.0000000
N2   N   0.444436524433086   0.722199569000136   0.624822704835107   1.0000000
N2   N   0.277797919005352   0.222225219144551   0.624594483758716   1.0000000
N2   N   0.777780247797405   0.722209201518866   0.624823491156358   1.0000000
N2   N   0.611102554902532   0.222221160796517   0.624697726653723   1.0000000
N2   N   0.944457597824041   0.222234057247034   0.624883091815149   1.0000000
N2   N   0.277769970842621   0.722209945379453   0.125120796915444   1.0000000
N2   N   0.111128760704350   0.222229537554742   0.125182858306614   1.0000000
N2   N   0.444432773733825   0.222214114461001   0.125349297386154   1.0000000
N2   N   0.611106804841411   0.722192081117705   0.125227939356142   1.0000000
N2   N   0.944438878965237   0.722202783293120   0.125188153202186   1.0000000
N2   N   0.777777849377779   0.222222947221838   0.125180419000143   1.0000000
N2   N   0.111105149443609   0.888869524338166   0.624886181703758   1.0000000
N2   N   0.444433035708776   0.888870586483108   0.624881334680030   1.0000000
N2   N   0.277796761170575   0.388892194432130   0.624631383516204   1.0000000
N2   N   0.611093653725364   0.388848987881711   0.625784707616739   1.0000000
N2   N   0.777784387269846   0.888881317363361   0.624896971922736   1.0000000
N2   N   0.944451362691096   0.388899222003916   0.624823393257564   1.0000000
N2   N   0.111122151444005   0.388901815587840   0.125159323493634   1.0000000
N2   N   0.277767718470893   0.888866509088109   0.125121018061061   1.0000000
N2   N   0.611102033047643   0.888870724623609   0.125126976039352   1.0000000
N2   N   0.444442078242688   0.388872611266704   0.124981945220510   1.0000000
N2   N   0.944449975762170   0.888879866957902   0.125104160066596   1.0000000
N2   N   0.777770754732029   0.388881230421259   0.125191463616479   1.0000000
N2   N   0.277780300810266   0.555553748594512   0.624780872603054   1.0000000
N2   N   0.111118293645068   0.055546101768744   0.624840291419571   1.0000000
N2   N   0.611111154970009   0.555521911991031   0.624819740110380   1.0000000
N2   N   0.444432259639850   0.055537088412472   0.624774735615326   1.0000000
N2   N   0.944430393875512   0.555542903275670   0.624700755246687   1.0000000
N2   N   0.111106106187112   0.555556539525570   0.125157096111296   1.0000000
N2   N   0.777781385752990   0.055553359868020   0.624883703044523   1.0000000
N2   N   0.277771040827187   0.055535457676957   0.125227838880699   1.0000000
N2   N   0.444446975117311   0.555524302920137   0.125411405181555   1.0000000
N2   N   0.777762291715664   0.555532322148738   0.125258807629071   1.0000000
N2   N   0.611098937673595   0.055546572798723   0.125196120273268   1.0000000
N2   N   0.444446975117311   0.555524302920137   0.624588594818444   1.0000000
N2   N   0.944459264389603   0.055557086965414   0.125107755447412   1.0000000
N2   N   0.277769970842621   0.722209945379453   0.624879203084557   1.0000000
N2   N   0.111128760704350   0.222229537554742   0.624817141693387   1.0000000
N2   N   0.444432773733825   0.222214114461001   0.624650702613846   1.0000000
N2   N   0.611106804841411   0.722192081117705   0.624772060643859   1.0000000
N2   N   0.944438878965237   0.722202783293120   0.624811846797814   1.0000000
N2   N   0.777777849377779   0.222222947221838   0.624819580999855   1.0000000
N2   N   0.111099809261901   0.722203695940289   0.125142684952204   1.0000000
N2   N   0.444436524433086   0.722199569000136   0.125177295164893   1.0000000
N2   N   0.277797919005352   0.222225219144551   0.125405516241285   1.0000000
N2   N   0.777780247797405   0.722209201518866   0.125176508843642   1.0000000
N2   N   0.611102554902532   0.222221160796517   0.125302273346277   1.0000000
N2   N   0.944457597824041   0.222234057247034   0.125116908184851   1.0000000
N2   N   0.111122151444005   0.388901815587840   0.624840676506367   1.0000000
N2   N   0.277767718470893   0.888866509088109   0.624878981938938   1.0000000
N2   N   0.611102033047643   0.888870724623609   0.624873023960648   1.0000000
N2   N   0.444442078242688   0.388872611266704   0.625018054779490   1.0000000
N2   N   0.944449975762170   0.888879866957902   0.624895839933403   1.0000000
N2   N   0.111105149443609   0.888869524338166   0.125113818296242   1.0000000
N2   N   0.777770754732029   0.388881230421259   0.624808536383521   1.0000000
N2   N   0.444433035708776   0.888870586483108   0.125118665319970   1.0000000
N2   N   0.277796761170575   0.388892194432130   0.125368616483796   1.0000000
N2   N   0.277780300810266   0.555553748594512   0.125219127396945   1.0000000
N2   N   0.611093653725364   0.388848987881711   0.124215292383261   1.0000000
N2   N   0.777784387269846   0.888881317363361   0.125103028077264   1.0000000
N2   N   0.944451362691096   0.388899222003916   0.125176606742436   1.0000000
N2   N   0.111106106187112   0.555556539525570   0.624842903888704   1.0000000
N2   N   0.277771040827187   0.055535457676957   0.624772161119301   1.0000000
N2   N   0.777762291715664   0.555532322148738   0.624741192370929   1.0000000
N2   N   0.611098937673595   0.055546572798723   0.624803879726731   1.0000000
N2   N   0.944459264389603   0.055557086965414   0.624892244552589   1.0000000
N2   N   0.055787928342027   0.111322271674908   0.375000000000000   1.0000000
N2   N   0.556357202092155   0.612071055503443   0.375000000000000   1.0000000
N2   N   0.389283359164969   0.112751469703102   0.375000000000000   1.0000000
N2   N   0.888353131885411   0.611757643185185   0.375000000000000   1.0000000
N2   N   0.722046448920858   0.110386071884389   0.375000000000000   1.0000000
N2   N   0.055556509654941   0.777780596530167   0.875000000000000   1.0000000
N2   N   0.388894728933703   0.777781250987050   0.875000000000000   1.0000000
N2   N   0.222223704739175   0.277777457813505   0.875000000000000   1.0000000
N2   N   0.722222233427954   0.777779849434828   0.875000000000000   1.0000000
N2   N   0.555554651521873   0.277774443490163   0.875000000000000   1.0000000
N2   N   0.888889194771617   0.277777543037588   0.875000000000000   1.0000000
N2   N   0.222291442343827   0.777633432143029   0.375000000000000   1.0000000
N2   N   0.055797588646422   0.277791314745590   0.375000000000000   1.0000000
N2   N   0.389365654815552   0.281236852676606   0.375000000000000   1.0000000
N2   N   0.555533481421986   0.778108251356220   0.375000000000000   1.0000000
N2   N   0.889796439876058   0.779269835670410   0.375000000000000   1.0000000
N2   N   0.722333472902290   0.275706449575951   0.375000000000000   1.0000000
N2   N   0.055555542713201   0.944449689402808   0.875000000000000   1.0000000
N2   N   0.388896430185992   0.944449216703195   0.875000000000000   1.0000000
N2   N   0.222224488686266   0.444441420771055   0.875000000000000   1.0000000
N2   N   0.555553861516975   0.444448916037870   0.875000000000000   1.0000000
N2   N   0.722223720296993   0.944446016988104   0.875000000000000   1.0000000
N2   N   0.888890247085064   0.444443803267606   0.875000000000000   1.0000000
N2   N   0.056210041560690   0.444210709339654   0.375000000000000   1.0000000
N2   N   0.222774788959959   0.945114866036019   0.375000000000000   1.0000000
N2   N   0.555343706617295   0.944654136704630   0.375000000000000   1.0000000
N2   N   0.390815755636260   0.440614045664044   0.375000000000000   1.0000000
N2   N   0.889310446592974   0.945169269849117   0.375000000000000   1.0000000
N2   N   0.222222726192281   0.611107570519771   0.875000000000000   1.0000000
N2   N   0.055554628866847   0.111110725034384   0.875000000000000   1.0000000
N2   N   0.555555133212703   0.611110110022075   0.875000000000000   1.0000000
N2   N   0.388894111601040   0.111113000844264   0.875000000000000   1.0000000
N2   N   0.888889267591636   0.611110791801316   0.875000000000000   1.0000000
N2   N   0.055020360624254   0.610685441814114   0.375000000000000   1.0000000
N2   N   0.722221730492981   0.111109654347408   0.875000000000000   1.0000000
N2   N   0.223065318244473   0.112146746576280   0.375000000000000   1.0000000
N2   N   0.389547777567875   0.609427616262616   0.375000000000000   1.0000000
N2   N   0.723125395852621   0.614986542423058   0.375000000000000   1.0000000
N2   N   0.555364804326107   0.111705197724165   0.375000000000000   1.0000000
N2   N   0.388894158407371   0.611109279885325   0.875000000000000   1.0000000
N2   N   0.889060190412376   0.111223576948908   0.375000000000000   1.0000000
N2   N   0.222224925575313   0.777779032692290   0.875000000000000   1.0000000
N2   N   0.055554897027322   0.277775443390085   0.875000000000000   1.0000000
N2   N   0.388891856593680   0.277780414722200   0.875000000000000   1.0000000
N2   N   0.555558380027821   0.777779484803504   0.875000000000000   1.0000000
N2   N   0.888889588730077   0.777782453139663   0.875000000000000   1.0000000
N2   N   0.722221782481166   0.277775659135014   0.875000000000000   1.0000000
N2   N   0.055956479735417   0.778267836273571   0.375000000000000   1.0000000
N2   N   0.388973419535100   0.777261398352002   0.375000000000000   1.0000000
N2   N   0.221816874474716   0.277452640373251   0.375000000000000   1.0000000
N2   N   0.722587988110705   0.779512726802431   0.375000000000000   1.0000000
N2   N   0.555270992333911   0.278828030912392   0.375000000000000   1.0000000
N2   N   0.889152226871440   0.277455124351954   0.375000000000000   1.0000000
N2   N   0.055554566256265   0.444441936684500   0.875000000000000   1.0000000
N2   N   0.222226113199043   0.944449317868364   0.875000000000000   1.0000000
N2   N   0.555558942240041   0.944448482002274   0.875000000000000   1.0000000
N2   N   0.388892764535722   0.444446401623947   0.875000000000000   1.0000000
N2   N   0.888891319181257   0.944448377871610   0.875000000000000   1.0000000
N2   N   0.056359144593480   0.945322647662271   0.375000000000000   1.0000000
N2   N   0.722223740089904   0.444446082455430   0.875000000000000   1.0000000
N2   N   0.388982017988276   0.944844007710757   0.375000000000000   1.0000000
N2   N   0.223568992828601   0.443959345193353   0.375000000000000   1.0000000
N2   N   0.222564980832671   0.610613229557770   0.375000000000000   1.0000000
N2   N   0.722175809549102   0.944807068603521   0.375000000000000   1.0000000
N2   N   0.888713403907794   0.443534108132633   0.375000000000000   1.0000000
N2   N   0.055553715668409   0.611107263376678   0.875000000000000   1.0000000
N2   N   0.222223132391566   0.111114308497714   0.875000000000000   1.0000000
N2   N   0.722218715927455   0.611111190272857   0.875000000000000   1.0000000
N2   N   0.555558200494680   0.111111073419277   0.875000000000000   1.0000000
N2   N   0.888890069213015   0.111110379418583   0.875000000000000   1.0000000
B2   B   0.111275456958251   0.055945852512041   0.375000000000000   1.0000000
B2   B   0.612910909500393   0.558597117442082   0.375000000000000   1.0000000
B2   B   0.444331316219594   0.055792889293213   0.375000000000000   1.0000000
B2   B   0.943734852169098   0.555258164893348   0.375000000000000   1.0000000
B2   B   0.777930497619763   0.055411423240241   0.375000000000000   1.0000000
B2   B   0.111111408319835   0.722224142342880   0.875000000000000   1.0000000
B2   B   0.444455019798798   0.722245423863585   0.875000000000000   1.0000000
B2   B   0.277750927070743   0.222200930147481   0.875000000000000   1.0000000
B2   B   0.777794461350849   0.722249075517337   0.875000000000000   1.0000000
B2   B   0.611127284500945   0.222204722394533   0.875000000000000   1.0000000
B2   B   0.944429739140598   0.222207729504873   0.875000000000000   1.0000000
B2   B   0.277843445067176   0.721944843397643   0.375000000000000   1.0000000
B2   B   0.110081570970837   0.221702861849264   0.375000000000000   1.0000000
B2   B   0.444369113159057   0.222839900773189   0.375000000000000   1.0000000
B2   B   0.611871602743395   0.723950769553965   0.375000000000000   1.0000000
B2   B   0.944948421105703   0.723273714980383   0.375000000000000   1.0000000
B2   B   0.778324667737601   0.220665246670559   0.375000000000000   1.0000000
B2   B   0.111099789082231   0.888880574546776   0.875000000000000   1.0000000
B2   B   0.444453782051009   0.888888772473214   0.875000000000000   1.0000000
B2   B   0.277757832328427   0.388890321889585   0.875000000000000   1.0000000
B2   B   0.611128363233528   0.388896688807107   0.875000000000000   1.0000000
B2   B   0.777785306880175   0.888902734367588   0.875000000000000   1.0000000
B2   B   0.944446699572340   0.388884461331998   0.875000000000000   1.0000000
B2   B   0.111657322978366   0.388690893322804   0.375000000000000   1.0000000
B2   B   0.277809608674417   0.888847563402775   0.375000000000000   1.0000000
B2   B   0.611153226040728   0.889376503406777   0.375000000000000   1.0000000
B2   B   0.945255414072254   0.890118092480166   0.375000000000000   1.0000000
B2   B   0.778147199022929   0.385498783940805   0.375000000000000   1.0000000
B2   B   0.277772139028069   0.555568827183945   0.875000000000000   1.0000000
B2   B   0.111081681323316   0.055535083942845   0.875000000000000   1.0000000
B2   B   0.611133224541383   0.555586353944624   0.875000000000000   1.0000000
B2   B   0.444449737529811   0.055532280902852   0.875000000000000   1.0000000
B2   B   0.944456514634121   0.555563377638599   0.875000000000000   1.0000000
B2   B   0.111165377752139   0.555339695331055   0.375000000000000   1.0000000
B2   B   0.777780081445559   0.055548634427195   0.875000000000000   1.0000000
B2   B   0.277883733065654   0.055794718027397   0.375000000000000   1.0000000
B2   B   0.446380272226973   0.555496487594376   0.375000000000000   1.0000000
B2   B   0.777684789006606   0.559730789468683   0.375000000000000   1.0000000
B2   B   0.611073124008591   0.055491428616335   0.375000000000000   1.0000000
B2   B   0.444455011426631   0.555586450635284   0.875000000000000   1.0000000
B2   B   0.944514201028431   0.055802931080963   0.375000000000000   1.0000000
B2   B   0.277779070873143   0.722228676173975   0.875000000000000   1.0000000
B2   B   0.111075382973499   0.222202892861917   0.875000000000000   1.0000000
B2   B   0.444446579524847   0.222200901424468   0.875000000000000   1.0000000
B2   B   0.611129354295130   0.722255088230363   0.875000000000000   1.0000000
B2   B   0.944453666306755   0.722236492749982   0.875000000000000   1.0000000
B2   B   0.777787686785684   0.222207855466505   0.875000000000000   1.0000000
B2   B   0.111045989951924   0.722144077730278   0.375000000000000   1.0000000
B2   B   0.444647916925438   0.721726253860892   0.375000000000000   1.0000000
B2   B   0.275861849130159   0.221973131877497   0.375000000000000   1.0000000
B2   B   0.779066422418224   0.725528531454185   0.375000000000000   1.0000000
B2   B   0.612052278917303   0.221931591506336   0.375000000000000   1.0000000
B2   B   0.944587765152345   0.222024461631561   0.375000000000000   1.0000000
B2   B   0.111090097482031   0.388882895215633   0.875000000000000   1.0000000
B2   B   0.277776194137241   0.888877837212795   0.875000000000000   1.0000000
B2   B   0.611123609940188   0.888900875163322   0.875000000000000   1.0000000
B2   B   0.444453032048948   0.388901918868199   0.875000000000000   1.0000000
B2   B   0.944438518482109   0.888893116840647   0.875000000000000   1.0000000
B2   B   0.111496311185421   0.889338160304011   0.375000000000000   1.0000000
B2   B   0.777800555461516   0.388888666234719   0.875000000000000   1.0000000
B2   B   0.444331496742521   0.888708499445809   0.375000000000000   1.0000000
B2   B   0.277217084567144   0.387314906499086   0.375000000000000   1.0000000
B2   B   0.278209762232334   0.555190540041305   0.375000000000000   1.0000000
B2   B   0.778267400620415   0.890206319874755   0.375000000000000   1.0000000
B2   B   0.945035123912164   0.388541788891009   0.375000000000000   1.0000000
B2   B   0.111107266169366   0.555558377488713   0.875000000000000   1.0000000
B2   B   0.277761975195113   0.055529225562730   0.875000000000000   1.0000000
B2   B   0.777802690995643   0.555581060388070   0.875000000000000   1.0000000
B2   B   0.611123193312314   0.055542714927985   0.875000000000000   1.0000000
B2   B   0.944426054699767   0.055544645907207   0.875000000000000   1.0000000
B2   B   0.055496452439038   0.111050880240773   0.124869437958606   1.0000000
B2   B   0.555620766616118   0.611189847739170   0.124878793215513   1.0000000
B2   B   0.388824831405996   0.110963195821777   0.124864897833104   1.0000000
B2   B   0.888959708373374   0.611152041327042   0.125017171520483   1.0000000
B2   B   0.722236609687393   0.111077725657796   0.124918272235244   1.0000000
B2   B   0.055552670561474   0.777746305479526   0.625052274098608   1.0000000
B2   B   0.388854892788525   0.777768658965215   0.625091926002977   1.0000000
B2   B   0.222121257639336   0.277741363935154   0.625203832491567   1.0000000
B2   B   0.722273119503333   0.777818710561502   0.625079651519185   1.0000000
B2   B   0.555614022062103   0.277775357799048   0.625697696598457   1.0000000
B2   B   0.888920195240962   0.277792464192375   0.625091484915763   1.0000000
B2   B   0.222190351623943   0.777739231026307   0.124920829409771   1.0000000
B2   B   0.055513711864386   0.277787291331867   0.124873613901738   1.0000000
B2   B   0.388860678269140   0.277739470090063   0.124405957713307   1.0000000
B2   B   0.555560168151541   0.777802464115946   0.124922614763621   1.0000000
B2   B   0.888925461658778   0.777790461516157   0.124939250677180   1.0000000
B2   B   0.722289938372762   0.277760370695091   0.124835659040719   1.0000000
B2   B   0.055518814247282   0.944371430761235   0.625103930752313   1.0000000
B2   B   0.388839622970060   0.944344939756795   0.625098683993992   1.0000000
B2   B   0.222155870558822   0.444493522739660   0.625108960764006   1.0000000
B2   B   0.555644252124384   0.444472284363576   0.625709564074076   1.0000000
B2   B   0.722231048796480   0.944436933837949   0.625089141792605   1.0000000
B2   B   0.888960406718877   0.444478148464107   0.625012915737333   1.0000000
B2   B   0.055550603556197   0.444482396069600   0.124930206177406   1.0000000
B2   B   0.222158378790591   0.944324697298829   0.124894913801607   1.0000000
B2   B   0.555535817735021   0.944396813855540   0.124916123760678   1.0000000
B2   B   0.388876514569072   0.444478525310529   0.124539003840248   1.0000000
B2   B   0.888890991994533   0.944428216290176   0.124903849731663   1.0000000
B2   B   0.722269803563655   0.444460861836597   0.124453165417465   1.0000000
B2   B   0.222188586483700   0.611146704366812   0.625076587238294   1.0000000
B2   B   0.055496452439038   0.111050880240773   0.625130562041394   1.0000000
B2   B   0.555620766616118   0.611189847739170   0.625121206784487   1.0000000
B2   B   0.388824831405996   0.110963195821777   0.625135102166896   1.0000000
B2   B   0.888959708373374   0.611152041327042   0.624982828479517   1.0000000
B2   B   0.055576470022983   0.611133387930847   0.124987491697979   1.0000000
B2   B   0.722236609687393   0.111077725657796   0.625081727764756   1.0000000
B2   B   0.222127229612371   0.110970679012180   0.124866035457075   1.0000000
B2   B   0.388858588232007   0.611174826650036   0.124927396088593   1.0000000
B2   B   0.722310396053203   0.611189674651203   0.124908249983087   1.0000000
B2   B   0.555542482749694   0.111015434123751   0.124913245128011   1.0000000
B2   B   0.388858588232007   0.611174826650036   0.625072603911408   1.0000000
B2   B   0.888882813213574   0.111095791889069   0.124900579590789   1.0000000
B2   B   0.222190351623943   0.777739231026307   0.625079170590230   1.0000000
B2   B   0.055513711864386   0.277787291331867   0.625126386098262   1.0000000
B2   B   0.388860678269140   0.277739470090063   0.625594042286693   1.0000000
B2   B   0.555560168151541   0.777802464115946   0.625077385236379   1.0000000
B2   B   0.888925461658778   0.777790461516157   0.625060749322819   1.0000000
B2   B   0.722289938372762   0.277760370695091   0.625164340959281   1.0000000
B2   B   0.055552670561474   0.777746305479526   0.124947725901393   1.0000000
B2   B   0.388854892788525   0.777768658965215   0.124908073997024   1.0000000
B2   B   0.222121257639336   0.277741363935154   0.124796167508434   1.0000000
B2   B   0.722273119503333   0.777818710561502   0.124920348480815   1.0000000
B2   B   0.555614022062103   0.277775357799048   0.124302303401543   1.0000000
B2   B   0.888920195240962   0.277792464192375   0.124908515084237   1.0000000
B2   B   0.055550603556197   0.444482396069600   0.625069793822593   1.0000000
B2   B   0.222158378790591   0.944324697298829   0.625105086198393   1.0000000
B2   B   0.555535817735021   0.944396813855540   0.625083876239321   1.0000000
B2   B   0.388876514569072   0.444478525310529   0.625460996159752   1.0000000
B2   B   0.888890991994533   0.944428216290176   0.625096150268338   1.0000000
B2   B   0.055518814247282   0.944371430761235   0.124896069247686   1.0000000
B2   B   0.722269803563655   0.444460861836597   0.625546834582534   1.0000000
B2   B   0.388839622970060   0.944344939756795   0.124901316006007   1.0000000
B2   B   0.222155870558822   0.444493522739660   0.124891039235994   1.0000000
B2   B   0.222188586483700   0.611146704366812   0.124923412761707   1.0000000
B2   B   0.555644252124384   0.444472284363576   0.124290435925924   1.0000000
B2   B   0.722231048796480   0.944436933837949   0.124910858207395   1.0000000
B2   B   0.888960406718877   0.444478148464107   0.124987084262666   1.0000000
B2   B   0.055576470022983   0.611133387930847   0.625012508302021   1.0000000
B2   B   0.222127229612371   0.110970679012180   0.625133964542924   1.0000000
B2   B   0.722310396053203   0.611189674651203   0.625091750016913   1.0000000
B2   B   0.555542482749694   0.111015434123751   0.625086754871988   1.0000000
B2   B   0.888882813213574   0.111095791889069   0.625099420409211   1.0000000


