data_1
_audit_creation_method   'vasp2cif'
_cell_length_a    17.52789999999977
_cell_length_b    17.52789999999977
_cell_length_c    15.0
_cell_angle_alpha    90.0
_cell_angle_beta    90.0
_cell_angle_gamma    119.99999999999916

_symmetry_space_group_name_H-M    'P 1'
loop_
_atom_site_label
_atom_site_type_symbol
_atom_site_fract_x
_atom_site_fract_y
_atom_site_fract_z
_atom_site_occupancy
B2   B   0.904916690175964   0.952134431747788   0.111056010276136   1.0000000
B2   B   0.905166984345705   0.094941347847034   0.111132681849982   1.0000000
B2   B   0.905039392962262   0.237590873374344   0.111104499377362   1.0000000
B2   B   0.904864456146053   0.380477417555750   0.111034468677993   1.0000000
B2   B   0.904868435300686   0.523550427417145   0.111126502599208   1.0000000
B2   B   0.905327530982415   0.666806748422890   0.111224210083872   1.0000000
B2   B   0.905261168518494   0.809804782000506   0.111100202897788   1.0000000
B2   B   0.048491589104616   0.953376332978513   0.110996897368442   1.0000000
B2   B   0.048629306008928   0.095968402769471   0.110992201622717   1.0000000
B2   B   0.048339452252096   0.238237512924810   0.110992635302428   1.0000000
B2   B   0.047577228444350   0.380831168506031   0.111014427411249   1.0000000
B2   B   0.047101731960964   0.523687707851858   0.111077836834687   1.0000000
B2   B   0.047359713776200   0.666846181518870   0.111161591679453   1.0000000
B2   B   0.047797485907392   0.810036525087700   0.111053791887398   1.0000000
B2   B   0.190697030568102   0.953076051683607   0.111033564461536   1.0000000
B2   B   0.192403498899573   0.097275866891200   0.111042723698786   1.0000000
B2   B   0.192532768931788   0.239782161694947   0.110942509620105   1.0000000
B2   B   0.190809546335924   0.381815770019932   0.110915669200045   1.0000000
B2   B   0.189430538827409   0.524214611861119   0.110990908456348   1.0000000
B2   B   0.189393698658256   0.666965098937784   0.111120787268282   1.0000000
B2   B   0.190016219126624   0.809997976255901   0.111047714541603   1.0000000
B2   B   0.333099098153487   0.952655156229701   0.111063418880387   1.0000000
B2   B   0.333591465837898   0.095396584795034   0.111144619744659   1.0000000
B2   B   0.338272272420381   0.241729291445641   0.110990343412311   1.0000000
B2   B   0.335806581682692   0.383209808509682   0.110685452772647   1.0000000
B2   B   0.332285519088082   0.528739479947399   0.110802806269744   1.0000000
B2   B   0.332222044787140   0.666939009949567   0.111192792386363   1.0000000
B2   B   0.332189557784109   0.809972549070589   0.111093656882968   1.0000000
B2   B   0.475666428867551   0.952289224050724   0.110979226641249   1.0000000
B2   B   0.476232099952952   0.094487581554609   0.111111514439691   1.0000000
B2   B   0.475471892682140   0.235990993077294   0.110982590547616   1.0000000
B2   B   0.473118390602220   0.809167538757256   0.110882405846642   1.0000000
B2   B   0.618728574763813   0.951655703427792   0.111005785069419   1.0000000
B2   B   0.619203492736786   0.094527535524945   0.111011329376445   1.0000000
B2   B   0.619458867310152   0.237204818018223   0.110986346727563   1.0000000
B2   B   0.620121387330151   0.380956503356709   0.110865382336186   1.0000000
B2   B   0.619981003322891   0.522391010073504   0.111016662324141   1.0000000
B2   B   0.618659595987620   0.664038447471686   0.111115447966536   1.0000000
B2   B   0.618989620311811   0.808071270696210   0.110896532871445   1.0000000
B2   B   0.761983802540004   0.951694929349496   0.111110112462418   1.0000000
B2   B   0.762021841753740   0.094502380981479   0.111142281502062   1.0000000
B2   B   0.762183591077698   0.237335742727427   0.111007255006850   1.0000000
B2   B   0.762371104292648   0.380337287572174   0.110961691293859   1.0000000
B2   B   0.762788701181917   0.523628538165834   0.111126006242234   1.0000000
B2   B   0.763011293791998   0.666438253523790   0.111186201775859   1.0000000
B2   B   0.761333104416328   0.808175734274471   0.111122227438828   1.0000000
C2   C   0.469240344363997   0.523551214588884   0.110744481702109   1.0000000
C2   C   0.517169820335689   0.476733003507829   0.110860832974600   1.0000000
N2   N   0.952832620073687   0.904976506176185   0.111001820964529   1.0000000
N2   N   0.952877363693309   0.047474971367632   0.111056954668753   1.0000000
N2   N   0.952859819746921   0.190167941675532   0.111077824278200   1.0000000
N2   N   0.952346470074459   0.332815493561761   0.111041256691355   1.0000000
N2   N   0.951980012152895   0.475750765733602   0.111066147683769   1.0000000
N2   N   0.952178635214942   0.618876756378308   0.111207675192568   1.0000000
N2   N   0.952434571948162   0.761992387994797   0.111119950836690   1.0000000
N2   N   0.095423370064965   0.905284142071294   0.110982856277187   1.0000000
N2   N   0.096563523000429   0.048829899811195   0.110984408711486   1.0000000
N2   N   0.096589820760601   0.191290341632654   0.110919677153918   1.0000000
N2   N   0.095523598368119   0.333420480219631   0.110976087891010   1.0000000
N2   N   0.094274347972763   0.475914943948622   0.110991376945763   1.0000000
N2   N   0.094252466387470   0.618966471909153   0.111111962287436   1.0000000
N2   N   0.094790795757909   0.762136714129868   0.111071566462232   1.0000000
N2   N   0.237860650097425   0.905226251526782   0.111012364673161   1.0000000
N2   N   0.238541173861024   0.048292047975321   0.111082327738186   1.0000000
N2   N   0.240905803494196   0.193145316293986   0.110991543301037   1.0000000
N2   N   0.239797933018096   0.335211900439228   0.110826313408270   1.0000000
N2   N   0.236883668889506   0.476545545404964   0.110813115043336   1.0000000
N2   N   0.236074790503858   0.619215348830242   0.111119745020630   1.0000000
N2   N   0.237026080077704   0.762282824855829   0.111073248393763   1.0000000
N2   N   0.380515624719845   0.905166624736995   0.110988791666300   1.0000000
N2   N   0.381076816324352   0.047672093688965   0.111141239811374   1.0000000
N2   N   0.381399161576786   0.190170712436199   0.111054379476555   1.0000000
N2   N   0.382408181710832   0.336905090437848   0.111502611310847   1.0000000
N2   N   0.381107844162002   0.480197863228023   0.110423851868115   1.0000000
N2   N   0.375356630663603   0.618768729871232   0.111275146806286   1.0000000
N2   N   0.379019867054064   0.762496983321151   0.111131007541617   1.0000000
N2   N   0.523562598559961   0.905149875684235   0.110935746773625   1.0000000
N2   N   0.524027006800293   0.047264687679274   0.110988886673668   1.0000000
N2   N   0.524486582460492   0.189313942442395   0.111112209545434   1.0000000
N2   N   0.528095062846238   0.327927656069858   0.110495357732640   1.0000000
N2   N   0.522771505304511   0.608582251023422   0.110885907827394   1.0000000
N2   N   0.527484021350872   0.771423927019175   0.110375586072812   1.0000000
N2   N   0.666819857496848   0.904156787293711   0.110994149700582   1.0000000
N2   N   0.666823570224717   0.046910738459739   0.111048682948850   1.0000000
N2   N   0.667100939839429   0.189721963893114   0.110952246560662   1.0000000
N2   N   0.667383585926777   0.332554115216394   0.110897877175005   1.0000000
N2   N   0.667253189148806   0.476067060463278   0.110993661336169   1.0000000
N2   N   0.667099436058267   0.617410526186407   0.111120182614134   1.0000000
N2   N   0.664985368970450   0.758628192123086   0.111121832022990   1.0000000
N2   N   0.809116276839689   0.903487895915449   0.111072018713293   1.0000000
N2   N   0.809736444407846   0.046905347809084   0.111178625627586   1.0000000
N2   N   0.809785427179612   0.189755915466590   0.111095531554555   1.0000000
N2   N   0.809697772256434   0.332664004730514   0.110972189806065   1.0000000
N2   N   0.809677754996430   0.475767369031768   0.111047277853834   1.0000000
N2   N   0.809933762253048   0.618715098822833   0.111209728513800   1.0000000
N2   N   0.809532185896684   0.761328260810838   0.111122467414352   1.0000000


