data_1
_audit_creation_method   'vasp2cif'
_cell_length_a    17.52789999999977
_cell_length_b    17.52789999999977
_cell_length_c    15.0
_cell_angle_alpha    90.0
_cell_angle_beta    90.0
_cell_angle_gamma    119.99999999999916

_symmetry_space_group_name_H-M    'P 1'
loop_
_atom_site_label
_atom_site_type_symbol
_atom_site_fract_x
_atom_site_fract_y
_atom_site_fract_z
_atom_site_occupancy
B2   B   0.905676484857337   0.952578035037395   0.111019704254591   1.0000000
B2   B   0.905200114192063   0.095343933738463   0.111053118050990   1.0000000
B2   B   0.904680074081198   0.238102182240808   0.111043508753945   1.0000000
B2   B   0.904244569290643   0.380964600306150   0.111007534691121   1.0000000
B2   B   0.903664506044928   0.523757034009388   0.111033619986826   1.0000000
B2   B   0.903633804856084   0.666616250965944   0.111113774328493   1.0000000
B2   B   0.906289197942118   0.810124619500529   0.111081467166008   1.0000000
B2   B   0.048382520609537   0.952397990809656   0.111025694636058   1.0000000
B2   B   0.047892914014872   0.095006003483570   0.111003618928949   1.0000000
B2   B   0.047566239778250   0.237709033209026   0.110981880641715   1.0000000
B2   B   0.047396305081352   0.380378190878314   0.110999451877211   1.0000000
B2   B   0.047322193033837   0.523251990177829   0.110998117491119   1.0000000
B2   B   0.047219223256900   0.666209448631477   0.111030491631682   1.0000000
B2   B   0.048111590580662   0.809271077441355   0.111057557186402   1.0000000
B2   B   0.190921164631187   0.952013871119309   0.111038604674181   1.0000000
B2   B   0.190656244699465   0.094796993727526   0.111033167603117   1.0000000
B2   B   0.190354479589298   0.237465396430221   0.110987018071149   1.0000000
B2   B   0.190408426210694   0.379700756575853   0.110980373235971   1.0000000
B2   B   0.190760942552286   0.522149040685975   0.111058174469761   1.0000000
B2   B   0.190547208859263   0.665907476523187   0.111065949199307   1.0000000
B2   B   0.190820305044179   0.809016614131048   0.111017668587133   1.0000000
B2   B   0.333738218156698   0.952030044862438   0.111037192722444   1.0000000
B2   B   0.333580610411806   0.094877782783130   0.111094840726249   1.0000000
B2   B   0.333029742058204   0.237325475094043   0.111067787163051   1.0000000
B2   B   0.334114319680547   0.380911262441444   0.111004510159949   1.0000000
B2   B   0.334846415004364   0.518284989852075   0.111043400860767   1.0000000
B2   B   0.333008452025209   0.665729374124801   0.111167678426761   1.0000000
B2   B   0.333722787687330   0.809106523164053   0.111106227530014   1.0000000
B2   B   0.476712514641033   0.952511561437155   0.111010979197506   1.0000000
B2   B   0.476487977353082   0.095382981134454   0.111006453612165   1.0000000
B2   B   0.476081942936533   0.238410445261666   0.111083736364119   1.0000000
B2   B   0.474541930691583   0.381435408110583   0.111015666360836   1.0000000
B2   B   0.470053175413550   0.673664497129619   0.111052355564595   1.0000000
B2   B   0.476894880190407   0.810515661371448   0.111103268707593   1.0000000
B2   B   0.620208475993432   0.952329328414662   0.110989895481388   1.0000000
B2   B   0.619389170951988   0.095496823904079   0.110988160572240   1.0000000
B2   B   0.618901315282959   0.238976509524172   0.111060467087963   1.0000000
B2   B   0.617857581667878   0.382725041624240   0.111042568493320   1.0000000
B2   B   0.613397904943347   0.525859270853993   0.110957185029597   1.0000000
B2   B   0.622587051227153   0.809506567375518   0.110945218884192   1.0000000
B2   B   0.763264382036174   0.952861034912627   0.110978974526642   1.0000000
B2   B   0.762335602077672   0.095501680623911   0.111032192806431   1.0000000
B2   B   0.761726171949525   0.238481943274777   0.111071053106405   1.0000000
B2   B   0.760999588645828   0.381547675618381   0.111068712810711   1.0000000
B2   B   0.759628733418467   0.524363009793520   0.111075509292657   1.0000000
B2   B   0.760946276306631   0.668535793645912   0.111030665108427   1.0000000
B2   B   0.764504922758963   0.810032662621229   0.110918270695157   1.0000000
N2   N   0.953108061339354   0.904930621927496   0.111028369491195   1.0000000
N2   N   0.952442134178568   0.047360181794886   0.111024233761140   1.0000000
N2   N   0.952109010758431   0.190225730385457   0.111021986339142   1.0000000
N2   N   0.951964002035601   0.333251518115974   0.110987324176227   1.0000000
N2   N   0.951882367141547   0.476291715064391   0.110978026833287   1.0000000
N2   N   0.951664264630708   0.619103707520653   0.111043483585222   1.0000000
N2   N   0.952792769588447   0.761886065341638   0.111097786638182   1.0000000
N2   N   0.095636697729660   0.904327985843041   0.111023562292402   1.0000000
N2   N   0.095302789417102   0.047112211569892   0.110984607453211   1.0000000
N2   N   0.094760693627104   0.189738313216831   0.110961980188512   1.0000000
N2   N   0.094698737802348   0.332687402435498   0.110961834464026   1.0000000
N2   N   0.095278140374439   0.475819834242604   0.110996426757418   1.0000000
N2   N   0.095312525076649   0.618711601225894   0.110997709636767   1.0000000
N2   N   0.095586142923316   0.761462146138922   0.111004574641033   1.0000000
N2   N   0.238549758779487   0.904084253863834   0.111007887273189   1.0000000
N2   N   0.238228481199539   0.046837233775873   0.111039586977929   1.0000000
N2   N   0.237506267751745   0.189249086203997   0.111017406849664   1.0000000
N2   N   0.237192984564428   0.331882751370065   0.110963539838944   1.0000000
N2   N   0.238301498874893   0.475139621907911   0.111017378215970   1.0000000
N2   N   0.238807633630833   0.618330021629247   0.111098900376588   1.0000000
N2   N   0.238753855880564   0.761251671417888   0.111044974694868   1.0000000
N2   N   0.381601672257603   0.904070358943373   0.111032789725242   1.0000000
N2   N   0.381270726994545   0.046937841712505   0.111019195950099   1.0000000
N2   N   0.380820083035530   0.189488446023247   0.111086512739868   1.0000000
N2   N   0.379566015461149   0.331016764835839   0.111021107238138   1.0000000
N2   N   0.380346472776726   0.473129207266186   0.110997141297129   1.0000000
N2   N   0.382364434265766   0.617031007535479   0.111089001760001   1.0000000
N2   N   0.382151367666341   0.761116752184940   0.111153758706904   1.0000000
N2   N   0.524776102685521   0.904468220739483   0.111017551545741   1.0000000
N2   N   0.524171439854781   0.047311326815510   0.110950607122288   1.0000000
N2   N   0.523836754221815   0.190390284812640   0.111039521971475   1.0000000
N2   N   0.523200135733104   0.333294335032412   0.111036923989172   1.0000000
N2   N   0.522159337662938   0.474066336114026   0.110918307789980   1.0000000
N2   N   0.526876666073923   0.762142989752577   0.111024038567044   1.0000000
N2   N   0.667773477750202   0.903918679895567   0.110954980705307   1.0000000
N2   N   0.666945703106920   0.047172209065030   0.110971325514365   1.0000000
N2   N   0.666534713717302   0.190658101895541   0.111036271377196   1.0000000
N2   N   0.666054138521525   0.334423723311190   0.111055667028934   1.0000000
N2   N   0.664854715743281   0.478909853367262   0.111014257842357   1.0000000
N2   N   0.618066474974799   0.669533671149872   0.110724573880319   1.0000000
N2   N   0.664551412552015   0.624903420452564   0.110885538189689   1.0000000
N2   N   0.668825852705913   0.760486117385788   0.110815319564412   1.0000000
N2   N   0.810060138665141   0.904732941401377   0.110950925967268   1.0000000
N2   N   0.809782673092304   0.047563578412851   0.111016012721351   1.0000000
N2   N   0.809316804783709   0.190483106595995   0.111047409041693   1.0000000
N2   N   0.808979526584601   0.333698316827633   0.111037968558700   1.0000000
N2   N   0.808304318812137   0.476935397840576   0.111053064458537   1.0000000
N2   N   0.807763612192250   0.619966120470990   0.111088795644733   1.0000000
N2   N   0.811173177510886   0.763049201574590   0.110999934915197   1.0000000


