data_1
_audit_creation_method   'vasp2cif'
_cell_length_a    17.52789999999977
_cell_length_b    17.52789999999977
_cell_length_c    15.0
_cell_angle_alpha    90.0
_cell_angle_beta    90.0
_cell_angle_gamma    119.99999999999916

_symmetry_space_group_name_H-M    'P 1'
loop_
_atom_site_label
_atom_site_type_symbol
_atom_site_fract_x
_atom_site_fract_y
_atom_site_fract_z
_atom_site_occupancy
B2   B   0.905413155041365   0.953338149582072   0.110969126995664   1.0000000
B2   B   0.904730586080620   0.095619354784140   0.110790686100700   1.0000000
B2   B   0.904535101628358   0.238316570885903   0.110835029934402   1.0000000
B2   B   0.904914095492713   0.381344287184458   0.111045406806414   1.0000000
B2   B   0.905944652888133   0.524429122165418   0.110984772250302   1.0000000
B2   B   0.906510340842825   0.668124140019411   0.110263156149338   1.0000000
B2   B   0.905989762121210   0.810926995414688   0.110319572340885   1.0000000
B2   B   0.047740751844749   0.952509203389297   0.111045334540120   1.0000000
B2   B   0.047091484207086   0.094887350355348   0.110639798652030   1.0000000
B2   B   0.046871588484360   0.237819982228666   0.110628520106452   1.0000000
B2   B   0.046995233383623   0.381073194843764   0.110781154572411   1.0000000
B2   B   0.047563639865523   0.524275664503295   0.111341072641545   1.0000000
B2   B   0.048290354330154   0.667302188005509   0.111338066612152   1.0000000
B2   B   0.048143047436240   0.810074852930108   0.111092918310570   1.0000000
B2   B   0.190177555930486   0.951941440963148   0.110817566740916   1.0000000
B2   B   0.189429972574056   0.093925002167726   0.110332531687426   1.0000000
B2   B   0.188568067599838   0.236177513067154   0.110231602904374   1.0000000
B2   B   0.188751207239523   0.380249875239503   0.110042950507834   1.0000000
B2   B   0.189061712493198   0.524298695500725   0.110329715609704   1.0000000
B2   B   0.190252546400468   0.667189928191404   0.110941927771881   1.0000000
B2   B   0.190516803759229   0.809717254074529   0.110986360466055   1.0000000
B2   B   0.332964795789161   0.951898758499118   0.110708238170680   1.0000000
B2   B   0.332363976108310   0.093703536546780   0.110313112894944   1.0000000
B2   B   0.330988364791861   0.234854414011676   0.110573071356903   1.0000000
B2   B   0.329143321789022   0.375765675315711   0.111226239340056   1.0000000
B2   B   0.329506409819227   0.525020213591021   0.109784503180157   1.0000000
B2   B   0.332546728849130   0.667728012153618   0.110437048887366   1.0000000
B2   B   0.333070758180965   0.809888926809205   0.110833000611035   1.0000000
B2   B   0.475970879352813   0.952343099635804   0.110709237813533   1.0000000
B2   B   0.475618886896029   0.093922504796809   0.110278382892559   1.0000000
B2   B   0.474824278761009   0.235073845488436   0.109932664732006   1.0000000
B2   B   0.473323682035867   0.374890648556766   0.115368375953525   1.0000000
B2   B   0.475447626584292   0.669987759942122   0.111188233444783   1.0000000
B2   B   0.476099013210416   0.810722042355291   0.110666209151317   1.0000000
B2   B   0.619249079105373   0.953026435303074   0.110703230707707   1.0000000
B2   B   0.618887791355681   0.094998601276073   0.110599060136125   1.0000000
B2   B   0.618614666020182   0.236860068765966   0.110620188773981   1.0000000
B2   B   0.617453876407454   0.378359843386545   0.111380180379823   1.0000000
B2   B   0.626489178804357   0.670760967302490   0.112979328433183   1.0000000
B2   B   0.620394615097331   0.811411673406401   0.111079484329633   1.0000000
B2   B   0.762572915207646   0.953454048378679   0.110906687966892   1.0000000
B2   B   0.761938679570897   0.095617764820418   0.110749675061658   1.0000000
B2   B   0.761755227740249   0.238037631959506   0.110778647021338   1.0000000
B2   B   0.762415591507654   0.381185748136855   0.110482865780598   1.0000000
B2   B   0.765534240569720   0.526319608514934   0.109367762858974   1.0000000
B2   B   0.762923059545110   0.668555839087495   0.110672021199491   1.0000000
B2   B   0.764089656260163   0.811812205624324   0.110624481798441   1.0000000
P2   P   0.479080625395170   0.521216788598266   0.116217250674333   1.0000000
N2   N   0.953047122030549   0.905747235493130   0.111120200591200   1.0000000
N2   N   0.952466802328082   0.048255154598400   0.110778908677185   1.0000000
N2   N   0.952143961563867   0.190838826622133   0.110766339249501   1.0000000
N2   N   0.952172774219540   0.333599609321017   0.110906994336484   1.0000000
N2   N   0.952722026039290   0.476454476977215   0.111559946052264   1.0000000
N2   N   0.953081298776654   0.619547364260283   0.111156113210759   1.0000000
N2   N   0.953344722283916   0.762829994315443   0.110707155165545   1.0000000
N2   N   0.095388288335386   0.904951714847477   0.111053199542457   1.0000000
N2   N   0.094854534061254   0.047477935097026   0.110633247036750   1.0000000
N2   N   0.094356448285164   0.190093398193856   0.110484151437912   1.0000000
N2   N   0.094588556503784   0.333304259448629   0.110501223641261   1.0000000
N2   N   0.094718032840530   0.476354144506840   0.110823230478362   1.0000000
N2   N   0.095387063564851   0.619339364423018   0.111278710534785   1.0000000
N2   N   0.095502595498972   0.762163561093182   0.111173575646471   1.0000000
N2   N   0.237996741080783   0.904599443040525   0.110815700793553   1.0000000
N2   N   0.237543402039550   0.046964620141672   0.110500248302299   1.0000000
N2   N   0.236637871169458   0.189139853128952   0.110045754777650   1.0000000
N2   N   0.236035005686000   0.331901585984822   0.110113115857858   1.0000000
N2   N   0.236386184913414   0.476077389107945   0.109699016526734   1.0000000
N2   N   0.237820977126532   0.619315962665716   0.110534481086766   1.0000000
N2   N   0.238079562351318   0.762056000058361   0.110893379399423   1.0000000
N2   N   0.380852757990303   0.904678073827955   0.110792851270600   1.0000000
N2   N   0.380589240014645   0.046921029048653   0.110403395528723   1.0000000
N2   N   0.379815862250247   0.188827438333005   0.110085545445297   1.0000000
N2   N   0.378347126870932   0.330346585549387   0.112311553235683   1.0000000
N2   N   0.374882615079572   0.473701767579074   0.110626521216913   1.0000000
N2   N   0.380556003521837   0.619521134118842   0.110223883564626   1.0000000
N2   N   0.380886539966775   0.762272185541985   0.110688351578031   1.0000000
N2   N   0.523859425456708   0.905158302340546   0.110685467329103   1.0000000
N2   N   0.523681489745626   0.047252624046019   0.110562919408840   1.0000000
N2   N   0.523436490593810   0.189161748337078   0.109925056842802   1.0000000
N2   N   0.522443116548464   0.330025455282627   0.110901119269400   1.0000000
N2   N   0.523656399924237   0.468170693655736   0.122964711471535   1.0000000
N2   N   0.526764310600014   0.624191766181623   0.113335107482405   1.0000000
N2   N   0.524102191429603   0.763186404175467   0.110785242929930   1.0000000
N2   N   0.667091864838282   0.905837060965780   0.110812948783154   1.0000000
N2   N   0.666712316268029   0.047920818684093   0.110625909157591   1.0000000
N2   N   0.666566754351491   0.190218384053159   0.110669050922423   1.0000000
N2   N   0.666463717116084   0.332563164378510   0.110919311602570   1.0000000
N2   N   0.671768115631355   0.473150267700236   0.113080386387139   1.0000000
N2   N   0.671705140605875   0.625453655831189   0.114949670484765   1.0000000
N2   N   0.668717529280201   0.765111192060206   0.111299924348698   1.0000000
N2   N   0.810577199525211   0.906505104908083   0.110971797708339   1.0000000
N2   N   0.809697817389792   0.048386072852928   0.110798231498645   1.0000000
N2   N   0.809429812825264   0.190850091038225   0.110789993057859   1.0000000
N2   N   0.809461881916815   0.333601248728604   0.110737544649204   1.0000000
N2   N   0.810920988019918   0.476551451991081   0.109631663483945   1.0000000
N2   N   0.811419616032179   0.620407693502635   0.109463068288194   1.0000000
N2   N   0.811595387655933   0.764332321682533   0.109413471778428   1.0000000


