data_1
_audit_creation_method   'vasp2cif'
_cell_length_a    17.52789999999977
_cell_length_b    17.52789999999977
_cell_length_c    15.0
_cell_angle_alpha    90.0
_cell_angle_beta    90.0
_cell_angle_gamma    119.99999999999916

_symmetry_space_group_name_H-M    'P 1'
loop_
_atom_site_label
_atom_site_type_symbol
_atom_site_fract_x
_atom_site_fract_y
_atom_site_fract_z
_atom_site_occupancy
B2   B   0.906116103405935   0.955092550188231   0.111056664488109   1.0000000
B2   B   0.903589013108731   0.096413008087236   0.111032222766372   1.0000000
B2   B   0.903151678236710   0.238866058377248   0.111041267800890   1.0000000
B2   B   0.904504239417248   0.381900333515742   0.110998517090443   1.0000000
B2   B   0.906548371654201   0.525201497815037   0.111051924781172   1.0000000
B2   B   0.908844884192845   0.669764269266737   0.111086183171824   1.0000000
B2   B   0.910340813146605   0.814803208831876   0.111042482145772   1.0000000
B2   B   0.047880858574865   0.952121162621121   0.111084057502529   1.0000000
B2   B   0.044909471007763   0.093885917790049   0.111056664488109   1.0000000
B2   B   0.044180056482900   0.237389129391770   0.110997576070987   1.0000000
B2   B   0.045346230302679   0.381053356321481   0.110973010156351   1.0000000
B2   B   0.047809824803717   0.524193839498509   0.111042810286380   1.0000000
B2   B   0.049325963163139   0.667085221721987   0.111132046608091   1.0000000
B2   B   0.049665255603286   0.810040171575853   0.111124994913846   1.0000000
B2   B   0.189961849620178   0.950336765592729   0.111124994913846   1.0000000
B2   B   0.185198812364128   0.089661208049402   0.111042482145772   1.0000000
B2   B   0.183126373927379   0.233073174485638   0.110993226644450   1.0000000
B2   B   0.184953786206462   0.379211053389026   0.111038437218017   1.0000000
B2   B   0.189301977596485   0.523293493834795   0.111114714627633   1.0000000
B2   B   0.191469513382000   0.666183524890878   0.111123491691018   1.0000000
B2   B   0.191357910485958   0.808644110710052   0.111096004313181   1.0000000
B2   B   0.332916799475006   0.950676058032850   0.111132046608091   1.0000000
B2   B   0.330237751930250   0.091157137003137   0.111086183171824   1.0000000
B2   B   0.320651087609475   0.225787271365068   0.110870801549395   1.0000000
B2   B   0.319753745267885   0.373557471624887   0.111016859786524   1.0000000
B2   B   0.330581505488556   0.520830093205955   0.111157480591963   1.0000000
B2   B   0.334459285469469   0.665542735727515   0.111186653890061   1.0000000
B2   B   0.333818496306129   0.808532507814019   0.111123491691018   1.0000000
B2   B   0.475808181698496   0.952192196392274   0.111042810286380   1.0000000
B2   B   0.474800523381967   0.093453649541772   0.111051924781172   1.0000000
B2   B   0.471080558905712   0.232053114626448   0.110759951981496   1.0000000
B2   B   0.446448771310389   0.361496244366341   0.111410118575797   1.0000000
B2   B   0.479171927991071   0.669420515708453   0.111157480591963   1.0000000
B2   B   0.476708527362197   0.810700043599548   0.111114714627633   1.0000000
B2   B   0.618948664874561   0.954655790893338   0.110973010156351   1.0000000
B2   B   0.618101687680243   0.095497781778743   0.110998517090443   1.0000000
B2   B   0.618023209756518   0.236664915770439   0.110887515805930   1.0000000
B2   B   0.622100908900986   0.377901112295038   0.110700191502351   1.0000000
B2   B   0.638505776829697   0.553553249886601   0.111410118575790   1.0000000
B2   B   0.626444549571124   0.680248275929095   0.111016859786524   1.0000000
B2   B   0.620790967806982   0.815048234989560   0.111038437218017   1.0000000
B2   B   0.762612891804240   0.955821964713102   0.110997576070987   1.0000000
B2   B   0.761135962818754   0.096850342959278   0.111041267800890   1.0000000
B2   B   0.761147345197844   0.238854675998157   0.111017704211024   1.0000000
B2   B   0.763337105425558   0.381978811439492   0.110887515805930   1.0000000
B2   B   0.767948906569570   0.528921462291289   0.110759951981496   1.0000000
B2   B   0.774214749830921   0.679350933587540   0.110870801549395   1.0000000
B2   B   0.766928846710376   0.816875647268632   0.110993226644450   1.0000000
N2   N   0.954550444976994   0.908027390654305   0.111053013758466   1.0000000
N2   N   0.951147916375366   0.048853485542639   0.111038245098642   1.0000000
N2   N   0.949937845378953   0.190909516806988   0.111012070238806   1.0000000
N2   N   0.950691513849349   0.333747125452374   0.110977499144364   1.0000000
N2   N   0.952845184496922   0.476899400112544   0.111006210567928   1.0000000
N2   N   0.954515566517475   0.620397303398682   0.111117829363583   1.0000000
N2   N   0.955452346095920   0.764466366161429   0.111101583298085   1.0000000
N2   N   0.095595430770903   0.904405971147070   0.111090050807154   1.0000000
N2   N   0.091974011263686   0.045450956941029   0.111053013758466   1.0000000
N2   N   0.089813773942239   0.187945208075537   0.110998327486566   1.0000000
N2   N   0.090831723985704   0.332252836106153   0.110961586873564   1.0000000
N2   N   0.094154961130117   0.476050384541698   0.110998731212441   1.0000000
N2   N   0.096265683948704   0.619131759576043   0.111082229563610   1.0000000
N2   N   0.096614342702621   0.761912945771536   0.111093951367139   1.0000000
N2   N   0.238088456146483   0.903387059215346   0.111093951367139   1.0000000
N2   N   0.235535035756584   0.044549055822098   0.111101583298085   1.0000000
N2   N   0.228240859764030   0.182461310603794   0.110942575862989   1.0000000
N2   N   0.227292675151444   0.327402061557806   0.111002467816192   1.0000000
N2   N   0.234901550223924   0.474601589197565   0.111111632508708   1.0000000
N2   N   0.238724217817940   0.618473973562220   0.111140084018061   1.0000000
N2   N   0.238841063573798   0.761160338344193   0.111100216664662   1.0000000
N2   N   0.380869642341934   0.903735717969295   0.111082229563610   1.0000000
N2   N   0.379604098519329   0.045485835400535   0.111117829363583   1.0000000
N2   N   0.375631507313094   0.185467380150862   0.110898322553769   1.0000000
N2   N   0.358761262835219   0.317512787580581   0.110884173649086   1.0000000
N2   N   0.370083062946132   0.466849333586616   0.111066604295872   1.0000000
N2   N   0.382182615116615   0.617818786801377   0.111182610781824   1.0000000
N2   N   0.381527428355765   0.761277184100047   0.111140084018061   1.0000000
N2   N   0.523951017375284   0.905846440787888   0.110998731212441   1.0000000
N2   N   0.523102001804429   0.047156217421075   0.111006210567928   1.0000000
N2   N   0.522099754692615   0.188166087443866   0.110923743419056   1.0000000
N2   N   0.517360633988540   0.325651086486729   0.110505192852479   1.0000000
N2   N   0.533152068330394   0.629918338971850   0.111066604295872   1.0000000
N2   N   0.525399812719406   0.765099851694077   0.111111632508708   1.0000000
N2   N   0.667748565810868   0.909169677932287   0.110961586873564   1.0000000
N2   N   0.666254276464624   0.049309888068678   0.110977499144364   1.0000000
N2   N   0.665916864917461   0.190503163632716   0.110956567786853   1.0000000
N2   N   0.668251077142690   0.331750324774314   0.110789819547408   1.0000000
N2   N   0.674350315430288   0.482640767928426   0.110505192852479   1.0000000
N2   N   0.682488614336411   0.641240139082768   0.110884173649086   1.0000000
N2   N   0.672599340359181   0.772708726766596   0.111002467816192   1.0000000
N2   N   0.812056193842458   0.910187627975781   0.110998327486566   1.0000000
N2   N   0.809091885111017   0.050063556539052   0.111012070238806   1.0000000
N2   N   0.808382704303380   0.191618697614606   0.111061520904373   1.0000000
N2   N   0.809498238285297   0.334084536999556   0.110956567786853   1.0000000
N2   N   0.811835314474124   0.477901647224403   0.110923743419056   1.0000000
N2   N   0.814534021767143   0.624369894604884   0.110898322553769   1.0000000
N2   N   0.817540091314194   0.771760542153957   0.110942575862989   1.0000000
Al2   Al   0.486376489121533   0.513625532075473   0.110999292115514   1.0000000
Al2   Al   0.559158640747329   0.440842761169669   0.111072462647447   1.0000000


