data_1
_audit_creation_method   'vasp2cif'
_cell_length_a    17.52789999999977
_cell_length_b    17.52789999999977
_cell_length_c    15.0
_cell_angle_alpha    90.0
_cell_angle_beta    90.0
_cell_angle_gamma    119.99999999999916

_symmetry_space_group_name_H-M    'P 1'
loop_
_atom_site_label
_atom_site_type_symbol
_atom_site_fract_x
_atom_site_fract_y
_atom_site_fract_z
_atom_site_occupancy
B2   B   0.907544011777845   0.956604694600036   0.111034434245755   1.0000000
B2   B   0.906617324073905   0.098288974084955   0.111056203126616   1.0000000
B2   B   0.905471108071395   0.239902017166402   0.111096793045264   1.0000000
B2   B   0.903504427488653   0.381521157312582   0.110982455494961   1.0000000
B2   B   0.898784524385363   0.523004631805850   0.111014602764549   1.0000000
B2   B   0.901288379789653   0.665904291880370   0.111124988507493   1.0000000
B2   B   0.906227843666299   0.812658987706742   0.111069217055195   1.0000000
B2   B   0.048412246228713   0.953539591616160   0.111032467967109   1.0000000
B2   B   0.049248928694740   0.097020812492412   0.110983370917987   1.0000000
B2   B   0.049041751399743   0.239781889503245   0.111006943361868   1.0000000
B2   B   0.047660297734775   0.381869463115594   0.110991142290193   1.0000000
B2   B   0.044720260658037   0.523399380090453   0.111010110879556   1.0000000
B2   B   0.044373650632876   0.665197454236777   0.111010223289439   1.0000000
B2   B   0.045436794031019   0.808250592890921   0.111033681900941   1.0000000
B2   B   0.188269380150732   0.949770840489830   0.111067567460155   1.0000000
B2   B   0.191121690242350   0.094941777822426   0.110995601897095   1.0000000
B2   B   0.191308578129579   0.237652817232909   0.110884609103192   1.0000000
B2   B   0.191626439832007   0.381416650637004   0.110965466760247   1.0000000
B2   B   0.189686827607956   0.523693359522415   0.111100869501397   1.0000000
B2   B   0.188385414246991   0.665344355458275   0.111084428049190   1.0000000
B2   B   0.187807909295795   0.807164072745586   0.111020862953026   1.0000000
B2   B   0.330621030855753   0.948704622289549   0.111039073501638   1.0000000
B2   B   0.330243543816868   0.089979267378528   0.111079122741236   1.0000000
B2   B   0.335163717564871   0.236472180172821   0.110934570084761   1.0000000
B2   B   0.333428476203121   0.378463174882363   0.111096530413402   1.0000000
B2   B   0.334278040620748   0.523940311971869   0.111321001295386   1.0000000
B2   B   0.332705623542601   0.666314798470378   0.111186545418423   1.0000000
B2   B   0.331254366285241   0.807658355597619   0.111007733328924   1.0000000
B2   B   0.474431264686116   0.950460014900064   0.110995032482285   1.0000000
B2   B   0.473501663915559   0.089000675849970   0.111069766841105   1.0000000
B2   B   0.471552344724269   0.225472609174961   0.110851639024581   1.0000000
B2   B   0.482717799153205   0.370805408031727   0.110819472733802   1.0000000
B2   B   0.477487429864118   0.673101670597426   0.111343076716926   1.0000000
B2   B   0.475455628450015   0.811565777524488   0.110950472462831   1.0000000
B2   B   0.619180472047980   0.954772708090644   0.110948517648716   1.0000000
B2   B   0.618129141824463   0.093753874829793   0.111080594321610   1.0000000
B2   B   0.616696655692842   0.232412690702871   0.110987212700792   1.0000000
B2   B   0.612612192835354   0.367697034509403   0.110763040860845   1.0000000
B2   B   0.624610302902915   0.681959071986019   0.111088049920661   1.0000000
B2   B   0.620687911667829   0.816534095351920   0.110854305750994   1.0000000
B2   B   0.764023737002461   0.957089934819427   0.110951017822333   1.0000000
B2   B   0.762707562797839   0.097403199275145   0.111074152287986   1.0000000
B2   B   0.761436291958550   0.238218020897640   0.111060725330447   1.0000000
B2   B   0.759242427583844   0.379571677750335   0.110963917816880   1.0000000
B2   B   0.752102786974057   0.523868572929517   0.111098356707202   1.0000000
B2   B   0.764217344777976   0.672555427881277   0.111006885520438   1.0000000
B2   B   0.766469675772693   0.817579204989582   0.110897424826195   1.0000000
Ga2   Ga   0.497003302064650   0.523136848386810   0.111718847341843   1.0000000
N2   N   0.953736831168618   0.907403098840409   0.111047946731816   1.0000000
N2   N   0.954630870615360   0.051025477479330   0.111011229773611   1.0000000
N2   N   0.953890165835398   0.193106182848734   0.111070383195835   1.0000000
N2   N   0.952164865336390   0.334912797640674   0.111006234236442   1.0000000
N2   N   0.948175825823688   0.476397195756339   0.110957402882996   1.0000000
N2   N   0.947773139190842   0.617709733262568   0.111028543257310   1.0000000
N2   N   0.949902785935762   0.761111740580606   0.111069491011611   1.0000000
N2   N   0.093491589425939   0.903432015799089   0.111027780503295   1.0000000
N2   N   0.096346593290968   0.048764875917136   0.110968970013232   1.0000000
N2   N   0.096730447463290   0.191839280827155   0.110922827286849   1.0000000
N2   N   0.096342837325623   0.334779785531910   0.110933871796014   1.0000000
N2   N   0.093911707618593   0.476695659427203   0.110998341708483   1.0000000
N2   N   0.092457763716582   0.618113418742263   0.111014931666983   1.0000000
N2   N   0.092262887103327   0.760024470675886   0.110996958051561   1.0000000
N2   N   0.235550634927661   0.902034111609365   0.111013803835922   1.0000000
N2   N   0.236126036516780   0.044865054418736   0.111063090432246   1.0000000
N2   N   0.240163783027368   0.190864370305957   0.110912769152319   1.0000000
N2   N   0.239027007565494   0.332288951761769   0.110869413507051   1.0000000
N2   N   0.238670370939041   0.476615431989501   0.111083057302939   1.0000000
N2   N   0.237116263843749   0.618574394626653   0.111139831589149   1.0000000
N2   N   0.235822376216947   0.760123608602371   0.111017648551842   1.0000000
N2   N   0.379075983004373   0.902472498513326   0.110971088344226   1.0000000
N2   N   0.378518626314926   0.043426157408540   0.111076277467909   1.0000000
N2   N   0.378299637844740   0.184795392726475   0.110985397545823   1.0000000
N2   N   0.387612535383477   0.334616585718155   0.110932469695738   1.0000000
N2   N   0.377575580145145   0.471258702520177   0.111435113795815   1.0000000
N2   N   0.382039591778277   0.619780553151712   0.111301780458573   1.0000000
N2   N   0.379964458837993   0.761446835817434   0.111027960574413   1.0000000
N2   N   0.523668773685572   0.905812567084351   0.110921067996705   1.0000000
N2   N   0.522794492533691   0.044754452564659   0.111048643626047   1.0000000
N2   N   0.521893305929173   0.182983924178767   0.111003351248034   1.0000000
N2   N   0.520311101904616   0.317883030443967   0.110584967499089   1.0000000
N2   N   0.564172536603917   0.464917329764856   0.111084085050456   1.0000000
N2   N   0.533154517672913   0.636320825412554   0.111687904332252   1.0000000
N2   N   0.525031332723703   0.767322939742682   0.110914153807534   1.0000000
N2   N   0.668681139555100   0.910153353050209   0.110875758344433   1.0000000
N2   N   0.667348746402537   0.049113867952320   0.111033741372534   1.0000000
N2   N   0.666176904136926   0.188667832133680   0.111046530600302   1.0000000
N2   N   0.664472349639848   0.328262953772433   0.110875461460620   1.0000000
N2   N   0.642324799481015   0.463344024597745   0.110986389656603   1.0000000
N2   N   0.674088459950293   0.639190150068773   0.110219995327333   1.0000000
N2   N   0.672681775552279   0.774246306802072   0.110796886020636   1.0000000
N2   N   0.813158174786776   0.911136970814432   0.110937737957454   1.0000000
N2   N   0.811478607206462   0.051443658937582   0.111020735737324   1.0000000
N2   N   0.810127445751268   0.192384717093615   0.111093946506463   1.0000000
N2   N   0.807968900178771   0.333911777948229   0.110966724392746   1.0000000
N2   N   0.799949458011166   0.475237961766518   0.111001899024161   1.0000000
N2   N   0.803780201702032   0.617707438912599   0.111197717742049   1.0000000
N2   N   0.811892523217379   0.767579550283456   0.111000407775734   1.0000000


