data_1
_audit_creation_method   'vasp2cif'
_cell_length_a    17.52789999999977
_cell_length_b    17.52789999999977
_cell_length_c    15.0
_cell_angle_alpha    90.0
_cell_angle_beta    90.0
_cell_angle_gamma    119.99999999999916

_symmetry_space_group_name_H-M    'P 1'
loop_
_atom_site_label
_atom_site_type_symbol
_atom_site_fract_x
_atom_site_fract_y
_atom_site_fract_z
_atom_site_occupancy
B2   B   0.905024200470909   0.953134330550044   0.110997774508501   1.0000000
B2   B   0.905561106313282   0.096691515479281   0.111003351426707   1.0000000
B2   B   0.905442112779012   0.239634315909566   0.111084941893865   1.0000000
B2   B   0.905122823223455   0.382248004126107   0.111045359710226   1.0000000
B2   B   0.904418784167334   0.524505786875455   0.111025434602298   1.0000000
B2   B   0.902926332535824   0.666691927217915   0.111062119135230   1.0000000
B2   B   0.904086747005677   0.809592765459231   0.111044165934085   1.0000000
B2   B   0.046876963121946   0.951233851842130   0.110995967976533   1.0000000
B2   B   0.047031455570897   0.094498248487770   0.110973480733529   1.0000000
B2   B   0.047933203403554   0.238557186357688   0.110992927267472   1.0000000
B2   B   0.048565908277167   0.381908530294111   0.111045063424194   1.0000000
B2   B   0.048681277503470   0.524312064725018   0.111032139140550   1.0000000
B2   B   0.047821825187566   0.666272819456995   0.111032536511152   1.0000000
B2   B   0.047073035507492   0.808540438735632   0.111019957248124   1.0000000
B2   B   0.189867582529530   0.950556982541464   0.111054918990562   1.0000000
B2   B   0.188925500751125   0.092654097316192   0.111050669703059   1.0000000
B2   B   0.188726211503268   0.235576390860856   0.110978312176698   1.0000000
B2   B   0.191067575265260   0.380691250477951   0.110981358304318   1.0000000
B2   B   0.192849723966419   0.524158229309400   0.110992460691732   1.0000000
B2   B   0.192989765632194   0.666141456872285   0.111001226538669   1.0000000
B2   B   0.190804620793111   0.808267568518391   0.110993971735822   1.0000000
B2   B   0.333355530692652   0.950892278859111   0.111045359703213   1.0000000
B2   B   0.332375763671194   0.092856291102627   0.111107027016314   1.0000000
B2   B   0.330509165286883   0.233532601206947   0.111022200321078   1.0000000
B2   B   0.329941540468232   0.374856383453696   0.111065534365341   1.0000000
B2   B   0.336393243941646   0.523890650244687   0.111059751210914   1.0000000
B2   B   0.339443772289154   0.666257873462928   0.111040652720941   1.0000000
B2   B   0.334669219199763   0.808542008613944   0.110992837115298   1.0000000
B2   B   0.476857955268671   0.952514380227765   0.110983516469354   1.0000000
B2   B   0.476003165330897   0.094487837528494   0.111019215534746   1.0000000
B2   B   0.475106038371178   0.236110614738959   0.111047442702648   1.0000000
B2   B   0.471718654980882   0.375270291852331   0.111228739671551   1.0000000
B2   B   0.490503199790161   0.670036360807612   0.111103950045833   1.0000000
B2   B   0.478226362060938   0.810425814027611   0.111021227148465   1.0000000
B2   B   0.620213315151277   0.954948354358980   0.110973367750415   1.0000000
B2   B   0.619456143197629   0.096725151006628   0.110979600360577   1.0000000
B2   B   0.618766278208684   0.239098455231704   0.111014989092298   1.0000000
B2   B   0.617452949199887   0.382001326707753   0.111043111803707   1.0000000
B2   B   0.617698760131704   0.527315652406204   0.111184147889865   1.0000000
B2   B   0.611988953246577   0.672082891554966   0.111093470502416   1.0000000
B2   B   0.621959943806563   0.814664253537047   0.111011312471507   1.0000000
B2   B   0.763548465723020   0.955176779364100   0.110975000376324   1.0000000
B2   B   0.762790036355198   0.097346817623083   0.111014107565208   1.0000000
B2   B   0.762214730216651   0.239768136949210   0.111032820876883   1.0000000
B2   B   0.761375259486232   0.382316991958919   0.111018140006230   1.0000000
B2   B   0.760311727548414   0.524939957725326   0.111050378492975   1.0000000
B2   B   0.758019056942135   0.668233107635186   0.111037785451119   1.0000000
B2   B   0.762581597567808   0.811742125705953   0.111041473054314   1.0000000
C2   C   0.466573311106316   0.510225703357429   0.111111265383716   1.0000000
C2   C   0.518304974932806   0.474601325723359   0.111464897749058   1.0000000
N2   N   0.951848689131010   0.904630975945092   0.110974960361081   1.0000000
N2   N   0.952299835642061   0.048100884710906   0.110947565666461   1.0000000
N2   N   0.952941608486175   0.191774650057232   0.110997382211597   1.0000000
N2   N   0.953174037543357   0.334805798678712   0.111042778604300   1.0000000
N2   N   0.952988691233232   0.477354351871622   0.110997625049184   1.0000000
N2   N   0.951873588400877   0.619540448365282   0.111004838291862   1.0000000
N2   N   0.951583149586598   0.761760843979728   0.111016921787208   1.0000000
N2   N   0.094612106915604   0.903553957844762   0.110977572562001   1.0000000
N2   N   0.094083038190901   0.046161728368964   0.110967663232571   1.0000000
N2   N   0.094202858868988   0.189505163185268   0.110927960003539   1.0000000
N2   N   0.095957465553189   0.333954840838399   0.110962520909582   1.0000000
N2   N   0.097119254462749   0.477130241903178   0.110984254575511   1.0000000
N2   N   0.096897455722420   0.619297112095232   0.110988923579259   1.0000000
N2   N   0.095353952680218   0.761248418126969   0.110981409977987   1.0000000
N2   N   0.238043800299588   0.903311321350718   0.110990915083539   1.0000000
N2   N   0.237109149635861   0.045513977645721   0.111066946832256   1.0000000
N2   N   0.235816468374440   0.187377851198966   0.110971123979394   1.0000000
N2   N   0.235977476509980   0.330567846584111   0.110955288001465   1.0000000
N2   N   0.240828407368924   0.476607652633393   0.110967192375824   1.0000000
N2   N   0.242606951761267   0.619236940737354   0.110969723350923   1.0000000
N2   N   0.239419783875699   0.761135090089436   0.110946694211498   1.0000000
N2   N   0.381602437646065   0.903791559647103   0.110963618075861   1.0000000
N2   N   0.380649485440164   0.046002840574889   0.111039909947824   1.0000000
N2   N   0.379576464315901   0.187679459635824   0.111039323423888   1.0000000
N2   N   0.377036509407364   0.327829964004452   0.111039423403663   1.0000000
N2   N   0.378233464772726   0.470494132252740   0.111049505479073   1.0000000
N2   N   0.391106028290730   0.619553020499715   0.111050924829074   1.0000000
N2   N   0.383436755396645   0.761383149959537   0.110990063389942   1.0000000
N2   N   0.525074363289456   0.905687463052726   0.110952930724914   1.0000000
N2   N   0.524177849315397   0.047707688022579   0.110943366150725   1.0000000
N2   N   0.523429653678839   0.189590049790720   0.110996250874249   1.0000000
N2   N   0.521988064287450   0.330822191068299   0.111038353020914   1.0000000
N2   N   0.527195700018109   0.764175676023257   0.111018751754580   1.0000000
N2   N   0.668645717303298   0.908539472863644   0.110934947342774   1.0000000
N2   N   0.667561521624993   0.049782257763496   0.110952625112887   1.0000000
N2   N   0.666899869905564   0.191944908302492   0.110973789849943   1.0000000
N2   N   0.665924855992155   0.334646797227545   0.110994160013302   1.0000000
N2   N   0.665063044075970   0.478261390596275   0.111048857227201   1.0000000
N2   N   0.661089376588595   0.623035860820096   0.111046009387695   1.0000000
N2   N   0.667618630946487   0.765839684777887   0.111011798589883   1.0000000
N2   N   0.810193271191857   0.906688241301145   0.110978314539261   1.0000000
N2   N   0.810621886067616   0.049910331197597   0.110958635516602   1.0000000
N2   N   0.810197543228890   0.192394011298950   0.111024560209458   1.0000000
N2   N   0.809643979249604   0.334964106187222   0.110994635364069   1.0000000
N2   N   0.808858179370931   0.477577239915022   0.111006761555832   1.0000000
N2   N   0.806815047213546   0.620265664545585   0.111036564682532   1.0000000
N2   N   0.808740028575866   0.763170140261124   0.111028352057167   1.0000000


