data_1
_audit_creation_method   'vasp2cif'
_cell_length_a    17.52789999999977
_cell_length_b    17.52789999999977
_cell_length_c    15.0
_cell_angle_alpha    90.0
_cell_angle_beta    90.0
_cell_angle_gamma    119.99999999999916

_symmetry_space_group_name_H-M    'P 1'
loop_
_atom_site_label
_atom_site_type_symbol
_atom_site_fract_x
_atom_site_fract_y
_atom_site_fract_z
_atom_site_occupancy
B2   B   0.904716599138605   0.952263999296142   0.111018298666401   1.0000000
B2   B   0.904807737125958   0.095194009566042   0.111040775366090   1.0000000
B2   B   0.904841124200837   0.238141986329865   0.111038741791974   1.0000000
B2   B   0.904797272358788   0.381035133614811   0.111008112959369   1.0000000
B2   B   0.904703199322701   0.523862589950883   0.111006326416370   1.0000000
B2   B   0.905061300130353   0.666786486723322   0.111043786692811   1.0000000
B2   B   0.905058308904968   0.809706951751133   0.111040733084108   1.0000000
B2   B   0.047643967317636   0.952357756047367   0.111018383623690   1.0000000
B2   B   0.047737716045860   0.095285121333401   0.111018298193400   1.0000000
B2   B   0.047842886091874   0.238192891770176   0.111006682557390   1.0000000
B2   B   0.047829340442968   0.381064568767324   0.111021189641412   1.0000000
B2   B   0.047729670269093   0.523866087597612   0.111012396283673   1.0000000
B2   B   0.047652327096783   0.666728429195821   0.111019979960479   1.0000000
B2   B   0.047721485147819   0.809585764121781   0.111007378410828   1.0000000
B2   B   0.190415985571218   0.952280277945184   0.111007376884830   1.0000000
B2   B   0.190294749284865   0.094943403803037   0.111040728960110   1.0000000
B2   B   0.190861137272853   0.238292838679658   0.111010453322430   1.0000000
B2   B   0.190858905179337   0.381137998225141   0.111009822273327   1.0000000
B2   B   0.190856789863518   0.523991538832028   0.111048253306034   1.0000000
B2   B   0.190290330667799   0.666789860712701   0.111043171175201   1.0000000
B2   B   0.190424671459279   0.809577023081719   0.111003452613590   1.0000000
B2   B   0.333273306509178   0.952349396737220   0.111019982374477   1.0000000
B2   B   0.333215227253678   0.094940439789649   0.111043782315811   1.0000000
B2   B   0.332866510215401   0.237150393686790   0.111039183659132   1.0000000
B2   B   0.334182907242693   0.380517952848094   0.111020905301001   1.0000000
B2   B   0.334191629834287   0.525074878235690   0.111043621678965   1.0000000
B2   B   0.332859706269738   0.667141996504262   0.111057242734341   1.0000000
B2   B   0.333211792607297   0.809711298175195   0.111043174708204   1.0000000
B2   B   0.476135599821389   0.952271910660911   0.111012401594674   1.0000000
B2   B   0.476139151555114   0.095298623353296   0.111006335109370   1.0000000
B2   B   0.476004449077867   0.238301982532848   0.111036756424841   1.0000000
B2   B   0.474911590572706   0.380534449546716   0.111030842487657   1.0000000
B2   B   0.474926906197306   0.665810227505723   0.111043622192971   1.0000000
B2   B   0.476010176957971   0.809144897204482   0.111048259043034   1.0000000
B2   B   0.618937170204679   0.952172343974033   0.111021191748413   1.0000000
B2   B   0.618966536733187   0.095204414923213   0.111008114045370   1.0000000
B2   B   0.618941528408166   0.238202452766008   0.111012998162820   1.0000000
B2   B   0.618853710733386   0.381148023475614   0.111014164734399   1.0000000
B2   B   0.619467119423284   0.525090076630295   0.111030837229655   1.0000000
B2   B   0.619483696606899   0.665818816473304   0.111020905013999   1.0000000
B2   B   0.618863744934857   0.809142864223663   0.111009817925324   1.0000000
B2   B   0.761808848757823   0.952158833435125   0.111006684783385   1.0000000
B2   B   0.761859709431135   0.095160552333161   0.111038744194973   1.0000000
B2   B   0.761859075457728   0.238142629722269   0.111053127951715   1.0000000
B2   B   0.761799369617992   0.381060227022834   0.111012989755821   1.0000000
B2   B   0.761699769643150   0.523997233729136   0.111036748460844   1.0000000
B2   B   0.762851265084208   0.667135170329596   0.111039192287131   1.0000000
B2   B   0.761708832744344   0.809140579409147   0.111010455796426   1.0000000
C2   C   0.476201639680778   0.523800015866218   0.111054068708965   1.0000000
N2   N   0.952312063461770   0.904705296210776   0.111014500073989   1.0000000
N2   N   0.952432940117119   0.047568777192880   0.111013819400649   1.0000000
N2   N   0.952669058227144   0.190595369853819   0.111016533767682   1.0000000
N2   N   0.952661859623498   0.333504176335521   0.111011189720486   1.0000000
N2   N   0.952425032484516   0.476283011738731   0.110984880184567   1.0000000
N2   N   0.952310941405630   0.619032121800942   0.111013924188156   1.0000000
N2   N   0.952299730901035   0.761867727741960   0.111021411609843   1.0000000
N2   N   0.095223564969208   0.904778187498794   0.110995786309223   1.0000000
N2   N   0.095296409227227   0.047689655353229   0.111014506570979   1.0000000
N2   N   0.095882630935574   0.190958418692790   0.111002829044787   1.0000000
N2   N   0.096065718895057   0.333744836674812   0.110997371881271   1.0000000
N2   N   0.095877348701242   0.476341981880486   0.111015147417122   1.0000000
N2   N   0.095290391032799   0.619032876990410   0.111016243134908   1.0000000
N2   N   0.095226881764211   0.761889175240440   0.110996294413036   1.0000000
N2   N   0.238112536920562   0.904774828993789   0.110996295305037   1.0000000
N2   N   0.238134001635044   0.047702038062962   0.111021404186846   1.0000000
N2   N   0.238272014545582   0.190674526729893   0.111018543163298   1.0000000
N2   N   0.239802202371751   0.334655824160993   0.110995242581278   1.0000000
N2   N   0.239803885760633   0.476567865333189   0.111024760300026   1.0000000
N2   N   0.238265031679953   0.619026365592690   0.111034526054648   1.0000000
N2   N   0.238132995206684   0.761868638988311   0.111016951430656   1.0000000
N2   N   0.380968794112590   0.904711234750201   0.111016247284911   1.0000000
N2   N   0.380969605386056   0.047690809514370   0.111013931936156   1.0000000
N2   N   0.380975697909594   0.190672533182483   0.111028578947423   1.0000000
N2   N   0.381008019643287   0.333440493980223   0.111016669753479   1.0000000
N2   N   0.386083052924656   0.478743039825080   0.111031774713248   1.0000000
N2   N   0.381012922524218   0.618988875434784   0.111028761137500   1.0000000
N2   N   0.380975372896307   0.761736675200046   0.111034530675648   1.0000000
N2   N   0.523659750347514   0.904124246814755   0.111015161195121   1.0000000
N2   N   0.523718646610269   0.047576629275487   0.110984880629573   1.0000000
N2   N   0.523659004862492   0.190972679417181   0.111007950026252   1.0000000
N2   N   0.523425853641040   0.334665953221094   0.111015893350996   1.0000000
N2   N   0.521254158977817   0.478747437647188   0.111028792730332   1.0000000
N2   N   0.521258619457921   0.613918629214344   0.111031776291249   1.0000000
N2   N   0.523433917279816   0.760197970567365   0.111024757484024   1.0000000
N2   N   0.666256953937184   0.903936028577943   0.110997369668271   1.0000000
N2   N   0.666497493395477   0.047339794625507   0.111011188252490   1.0000000
N2   N   0.666498929438747   0.190597959757082   0.111018861159388   1.0000000
N2   N   0.666251144913216   0.333750665635786   0.110997406025195   1.0000000
N2   N   0.665335710910906   0.476575862368957   0.111015872951996   1.0000000
N2   N   0.666561136663778   0.618993674901704   0.111016672388477   1.0000000
N2   N   0.665345842293004   0.760199555096247   0.110995235450278   1.0000000
N2   N   0.809043293823213   0.904119084098429   0.111002829420792   1.0000000
N2   N   0.809406355423184   0.047332650845853   0.111016543454682   1.0000000
N2   N   0.809520560546824   0.190481094145176   0.111031728232386   1.0000000
N2   N   0.809403778350915   0.333502755722256   0.111018855219393   1.0000000
N2   N   0.809029212137820   0.476342749587512   0.111007929515249   1.0000000
N2   N   0.809329188184509   0.619026006137407   0.111028594300425   1.0000000
N2   N   0.809327135364107   0.761729677238418   0.111018554459293   1.0000000


