data_1
_audit_creation_method   'vasp2cif'
_cell_length_a    14.93631414619966
_cell_length_b    14.936314146199727
_cell_length_c    13.341276283792837
_cell_angle_alpha    90.0
_cell_angle_beta    90.0
_cell_angle_gamma    119.99999999999984

_symmetry_space_group_name_H-M    'P 1'
loop_
_atom_site_label
_atom_site_type_symbol
_atom_site_fract_x
_atom_site_fract_y
_atom_site_fract_z
_atom_site_occupancy
C2   C   0.620009224942527   0.391524487980599   0.375000000000000   1.0000000
O2   O   0.431412690584724   0.383537193660454   0.375000000000000   1.0000000
N2   N   0.582083302655701   0.453405339942256   0.375000000000000   1.0000000
N2   N   0.111042297025007   0.055523901346252   0.125011856668923   1.0000000
N2   N   0.611118841980057   0.555604516693802   0.125129624399603   1.0000000
N2   N   0.444395670841729   0.055553730064756   0.125092477352619   1.0000000
N2   N   0.944398843236663   0.555515579514215   0.125057495156717   1.0000000
N2   N   0.777698973002618   0.055512843111198   0.124999990229584   1.0000000
N2   N   0.111068645890552   0.722182923631873   0.624977168999138   1.0000000
N2   N   0.444387356606071   0.722167690964393   0.624935223437254   1.0000000
N2   N   0.277689731270675   0.222197907123077   0.624782957621802   1.0000000
N2   N   0.777765764523699   0.722252524542055   0.625056147355674   1.0000000
N2   N   0.611070144080681   0.222217740805774   0.624775938795995   1.0000000
N2   N   0.944360168280672   0.222166258062556   0.625029750438920   1.0000000
N2   N   0.277726531151948   0.722175644434422   0.125005928938474   1.0000000
N2   N   0.111002898178964   0.222159150821556   0.124970628090155   1.0000000
N2   N   0.444405248827455   0.222246140801303   0.125288957617679   1.0000000
N2   N   0.611080865858972   0.722215638498819   0.125099111853638   1.0000000
N2   N   0.944408352220928   0.722197843877119   0.125036681333896   1.0000000
N2   N   0.777716459035979   0.222173531586668   0.125017891601400   1.0000000
N2   N   0.111071484368190   0.888866764570735   0.624980584300506   1.0000000
N2   N   0.444384395510691   0.888855326244327   0.624971996521411   1.0000000
N2   N   0.277696927944764   0.388820715924767   0.624766165108732   1.0000000
N2   N   0.611080952709738   0.388887555667441   0.624539273431549   1.0000000
N2   N   0.777733600299153   0.888887793434169   0.625040958053754   1.0000000
N2   N   0.944383972471748   0.388840933843579   0.624956592191653   1.0000000
N2   N   0.111035744833407   0.388829122557610   0.125013336456107   1.0000000
N2   N   0.277736441008499   0.888866888714762   0.125017095789623   1.0000000
N2   N   0.611042733764524   0.888853704514147   0.125027547887461   1.0000000
N2   N   0.444391015808205   0.388870822050259   0.125464484829194   1.0000000
N2   N   0.944408461219316   0.888881742724139   0.124985507275986   1.0000000
N2   N   0.777727766134161   0.388850731427808   0.125144232550013   1.0000000
N2   N   0.277722402724021   0.555494750969165   0.624927160087314   1.0000000
N2   N   0.111042297025007   0.055523901346252   0.624988143331076   1.0000000
N2   N   0.611118841980057   0.555604516693802   0.624870375600396   1.0000000
N2   N   0.444395670841729   0.055553730064756   0.624907522647381   1.0000000
N2   N   0.944398843236663   0.555515579514215   0.624942504843283   1.0000000
N2   N   0.111057397809113   0.555503943986734   0.125025347355902   1.0000000
N2   N   0.777698973002618   0.055512843111198   0.625000009770422   1.0000000
N2   N   0.277732278187193   0.055552301424407   0.125100381463691   1.0000000
N2   N   0.444411365350676   0.555513415543156   0.125352153292457   1.0000000
N2   N   0.777739408112290   0.555544709755638   0.125209899969540   1.0000000
N2   N   0.611037876815629   0.055524339525077   0.125063514872744   1.0000000
N2   N   0.444411365350676   0.555513415543156   0.624647846707542   1.0000000
N2   N   0.944367355719623   0.055517419892115   0.124948695544233   1.0000000
N2   N   0.277726531151948   0.722175644434422   0.624994071061525   1.0000000
N2   N   0.111002898178964   0.222159150821556   0.625029371909845   1.0000000
N2   N   0.444405248827455   0.222246140801303   0.624711042382321   1.0000000
N2   N   0.611080865858972   0.722215638498819   0.624900888146362   1.0000000
N2   N   0.944408352220928   0.722197843877119   0.624963318666104   1.0000000
N2   N   0.777716459035979   0.222173531586668   0.624982108398600   1.0000000
N2   N   0.111068645890552   0.722182923631873   0.125022831000861   1.0000000
N2   N   0.444387356606071   0.722167690964393   0.125064776562746   1.0000000
N2   N   0.277689731270675   0.222197907123077   0.125217042378198   1.0000000
N2   N   0.777765764523699   0.722252524542055   0.124943852644325   1.0000000
N2   N   0.611070144080681   0.222217740805774   0.125224061204004   1.0000000
N2   N   0.944360168280672   0.222166258062556   0.124970249561080   1.0000000
N2   N   0.111035744833407   0.388829122557610   0.624986663543893   1.0000000
N2   N   0.277736441008499   0.888866888714762   0.624982904210377   1.0000000
N2   N   0.611042733764524   0.888853704514147   0.624972452112539   1.0000000
N2   N   0.444391015808205   0.388870822050259   0.624535515170806   1.0000000
N2   N   0.944408461219316   0.888881742724139   0.625014492724014   1.0000000
N2   N   0.111071484368190   0.888866764570735   0.125019415699495   1.0000000
N2   N   0.777727766134161   0.388850731427808   0.624855767449987   1.0000000
N2   N   0.444384395510691   0.888855326244327   0.125028003478589   1.0000000
N2   N   0.277696927944764   0.388820715924767   0.125233834891268   1.0000000
N2   N   0.277722402724021   0.555494750969165   0.125072839912687   1.0000000
N2   N   0.611080952709738   0.388887555667441   0.125460726568451   1.0000000
N2   N   0.777733600299153   0.888887793434169   0.124959041946245   1.0000000
N2   N   0.944383972471748   0.388840933843579   0.125043407808347   1.0000000
N2   N   0.111057397809113   0.555503943986734   0.624974652644098   1.0000000
N2   N   0.277732278187193   0.055552301424407   0.624899618536309   1.0000000
N2   N   0.777739408112290   0.555544709755638   0.624790100030460   1.0000000
N2   N   0.611037876815629   0.055524339525077   0.624936485127256   1.0000000
N2   N   0.944367355719623   0.055517419892115   0.625051304455767   1.0000000
N2   N   0.052949100553696   0.109487821589502   0.375000000000000   1.0000000
N2   N   0.555240263474621   0.607290269445181   0.375000000000000   1.0000000
N2   N   0.390368352031343   0.115786276074941   0.375000000000000   1.0000000
N2   N   0.891862717313708   0.612026421246716   0.375000000000000   1.0000000
N2   N   0.721134992247247   0.110548317545447   0.375000000000000   1.0000000
N2   N   0.055528296201110   0.777757879818140   0.875000000000000   1.0000000
N2   N   0.388862179088400   0.777761111785249   0.875000000000000   1.0000000
N2   N   0.222196020117985   0.277757396844656   0.875000000000000   1.0000000
N2   N   0.722192662044037   0.777757157717377   0.875000000000000   1.0000000
N2   N   0.555527985605180   0.277753797206113   0.875000000000000   1.0000000
N2   N   0.888863701423585   0.277761343423247   0.875000000000000   1.0000000
N2   N   0.223629296420482   0.778926990009105   0.375000000000000   1.0000000
N2   N   0.052820746632158   0.276708573744991   0.375000000000000   1.0000000
N2   N   0.380679442470825   0.274921509363349   0.375000000000000   1.0000000
N2   N   0.554998030881990   0.775873537843534   0.375000000000000   1.0000000
N2   N   0.891384897709316   0.779262755127257   0.375000000000000   1.0000000
N2   N   0.722703805118077   0.277902529844275   0.375000000000000   1.0000000
N2   N   0.055526298732384   0.944423853375113   0.875000000000000   1.0000000
N2   N   0.388862574317544   0.944424927235414   0.875000000000000   1.0000000
N2   N   0.222197448690170   0.444426343036084   0.875000000000000   1.0000000
N2   N   0.555526621202920   0.444421248005830   0.875000000000000   1.0000000
N2   N   0.722192580920275   0.944424505090648   0.875000000000000   1.0000000
N2   N   0.888864241027940   0.444425915882060   0.875000000000000   1.0000000
N2   N   0.055194394355218   0.444547982208940   0.375000000000000   1.0000000
N2   N   0.223625545787411   0.946212454230164   0.375000000000000   1.0000000
N2   N   0.555155728566699   0.944426055434094   0.375000000000000   1.0000000
N2   N   0.379198608160300   0.440168091916674   0.375000000000000   1.0000000
N2   N   0.887718066678384   0.943386557966616   0.375000000000000   1.0000000
N2   N   0.726820040154172   0.444285239620902   0.375000000000000   1.0000000
N2   N   0.222193470776588   0.611091928830124   0.875000000000000   1.0000000
N2   N   0.055526519367264   0.111088454765663   0.875000000000000   1.0000000
N2   N   0.555525893741103   0.611087269686422   0.875000000000000   1.0000000
N2   N   0.388861404688419   0.111087081199956   0.875000000000000   1.0000000
N2   N   0.888863912975985   0.611090323475728   0.875000000000000   1.0000000
N2   N   0.057419839866842   0.612112873523558   0.375000000000000   1.0000000
N2   N   0.722191009813212   0.111088922507918   0.875000000000000   1.0000000
N2   N   0.220296234469961   0.110232920246993   0.375000000000000   1.0000000
N2   N   0.388426808239856   0.608498266622955   0.375000000000000   1.0000000
N2   N   0.728889674444035   0.615124247684263   0.375000000000000   1.0000000
N2   N   0.555532631886295   0.113186122732102   0.375000000000000   1.0000000
N2   N   0.388863804578552   0.611091194078767   0.875000000000000   1.0000000
N2   N   0.886954623126284   0.109905793664276   0.375000000000000   1.0000000
N2   N   0.222194262848913   0.777758161646959   0.875000000000000   1.0000000
N2   N   0.055529535861736   0.277760070720891   0.875000000000000   1.0000000
N2   N   0.388861060604462   0.277755275548918   0.875000000000000   1.0000000
N2   N   0.555526811876782   0.777757636237976   0.875000000000000   1.0000000
N2   N   0.888863934468093   0.777759763200789   0.875000000000000   1.0000000
N2   N   0.722194880558044   0.277755134364833   0.875000000000000   1.0000000
N2   N   0.057467824716610   0.779006512311759   0.375000000000000   1.0000000
N2   N   0.389314549946783   0.777504770911878   0.375000000000000   1.0000000
N2   N   0.216712556460449   0.275236420878536   0.375000000000000   1.0000000
N2   N   0.721885585519879   0.776697208912076   0.375000000000000   1.0000000
N2   N   0.559199278136376   0.284355025282657   0.375000000000000   1.0000000
N2   N   0.887915400345674   0.277308231718715   0.375000000000000   1.0000000
N2   N   0.055528290602141   0.444427328752896   0.875000000000000   1.0000000
N2   N   0.222193862373723   0.944422864547671   0.875000000000000   1.0000000
N2   N   0.555525484091098   0.944425223762561   0.875000000000000   1.0000000
N2   N   0.388864798168077   0.444424529643261   0.875000000000000   1.0000000
N2   N   0.888862846910249   0.944425624482609   0.875000000000000   1.0000000
N2   N   0.055765450914915   0.944640522566141   0.375000000000000   1.0000000
N2   N   0.722195369983251   0.444423066568365   0.875000000000000   1.0000000
N2   N   0.389654769882097   0.946289185856015   0.375000000000000   1.0000000
N2   N   0.219257184232905   0.443729459757532   0.375000000000000   1.0000000
N2   N   0.222819399602917   0.611353312011417   0.375000000000000   1.0000000
N2   N   0.720948685585066   0.943247103314904   0.375000000000000   1.0000000
N2   N   0.890976075102933   0.445175318540380   0.375000000000000   1.0000000
N2   N   0.055527471764721   0.611090124354885   0.875000000000000   1.0000000
N2   N   0.222191225642833   0.111086641057379   0.875000000000000   1.0000000
N2   N   0.722197194998669   0.611090652511874   0.875000000000000   1.0000000
N2   N   0.555526100569663   0.111086923513376   0.875000000000000   1.0000000
N2   N   0.888861796912675   0.111090948787826   0.875000000000000   1.0000000
B2   B   0.109515961276401   0.054922592995980   0.375000000000000   1.0000000
B2   B   0.617830340676108   0.557682766218114   0.375000000000000   1.0000000
B2   B   0.444525195087467   0.058056735439066   0.375000000000000   1.0000000
B2   B   0.946848811311464   0.556395386466491   0.375000000000000   1.0000000
B2   B   0.776094372753997   0.054301652092238   0.375000000000000   1.0000000
B2   B   0.111081510232150   0.722204546131837   0.875000000000000   1.0000000
B2   B   0.444421284599355   0.722197945302703   0.875000000000000   1.0000000
B2   B   0.277764844845285   0.222209308400930   0.875000000000000   1.0000000
B2   B   0.777739821847551   0.722190226139338   0.875000000000000   1.0000000
B2   B   0.611077149415700   0.222207184119106   0.875000000000000   1.0000000
B2   B   0.944419631944485   0.222202900181720   0.875000000000000   1.0000000
B2   B   0.278439444360174   0.722577655616917   0.375000000000000   1.0000000
B2   B   0.106714996017494   0.220023443233355   0.375000000000000   1.0000000
B2   B   0.446029505567039   0.228471789297692   0.375000000000000   1.0000000
B2   B   0.610244126916202   0.719346139358484   0.375000000000000   1.0000000
B2   B   0.946579260257743   0.723401023994542   0.375000000000000   1.0000000
B2   B   0.777110547038483   0.221489290167925   0.375000000000000   1.0000000
B2   B   0.111080889498628   0.888870011466959   0.875000000000000   1.0000000
B2   B   0.444416852797655   0.888869512338723   0.875000000000000   1.0000000
B2   B   0.277771518393516   0.388874285066700   0.875000000000000   1.0000000
B2   B   0.611072534287407   0.388877549580522   0.875000000000000   1.0000000
B2   B   0.777744566985849   0.888856949662065   0.875000000000000   1.0000000
B2   B   0.944417414312856   0.388872628528772   0.875000000000000   1.0000000
B2   B   0.108769393401800   0.387885785819172   0.375000000000000   1.0000000
B2   B   0.278743038741098   0.890216209109900   0.375000000000000   1.0000000
B2   B   0.610030065545861   0.887553214528250   0.375000000000000   1.0000000
B2   B   0.944993254511253   0.889441681821117   0.375000000000000   1.0000000
B2   B   0.781022664794997   0.388619765823780   0.375000000000000   1.0000000
B2   B   0.277762168194418   0.555539011744588   0.875000000000000   1.0000000
B2   B   0.111084612747179   0.055535117280055   0.875000000000000   1.0000000
B2   B   0.611076532317964   0.555523511277819   0.875000000000000   1.0000000
B2   B   0.444414637315094   0.055538554101409   0.875000000000000   1.0000000
B2   B   0.944412043369823   0.555538602219342   0.875000000000000   1.0000000
B2   B   0.111897596695893   0.555824868360017   0.375000000000000   1.0000000
B2   B   0.777747305274076   0.055530054483930   0.875000000000000   1.0000000
B2   B   0.278627363615023   0.057532192831189   0.375000000000000   1.0000000
B2   B   0.443955220507540   0.551855369158544   0.375000000000000   1.0000000
B2   B   0.781542536273743   0.557115810903800   0.375000000000000   1.0000000
B2   B   0.610254755849188   0.055892523741724   0.375000000000000   1.0000000
B2   B   0.444429143657072   0.555529987369718   0.875000000000000   1.0000000
B2   B   0.942179499896911   0.054045588229504   0.375000000000000   1.0000000
B2   B   0.277753322238587   0.722204703284098   0.875000000000000   1.0000000
B2   B   0.111093173653486   0.222204725534162   0.875000000000000   1.0000000
B2   B   0.444417583700400   0.222211025065747   0.875000000000000   1.0000000
B2   B   0.611079732485383   0.722185816477083   0.875000000000000   1.0000000
B2   B   0.944409640717315   0.722201750473320   0.875000000000000   1.0000000
B2   B   0.777747399004454   0.222203544591916   0.875000000000000   1.0000000
B2   B   0.112772816091616   0.723317023306640   0.375000000000000   1.0000000
B2   B   0.444039173269177   0.720455841366253   0.375000000000000   1.0000000
B2   B   0.271666496493753   0.220046504404186   0.375000000000000   1.0000000
B2   B   0.780878247174939   0.724299105577446   0.375000000000000   1.0000000
B2   B   0.611858800153679   0.224264467744297   0.375000000000000   1.0000000
B2   B   0.942225111595327   0.220939398562192   0.375000000000000   1.0000000
B2   B   0.111092736890629   0.388873746526417   0.875000000000000   1.0000000
B2   B   0.277750448446553   0.888872098967344   0.875000000000000   1.0000000
B2   B   0.611080855840011   0.888861246972702   0.875000000000000   1.0000000
B2   B   0.444431593039564   0.388875509971018   0.875000000000000   1.0000000
B2   B   0.944411924911971   0.888863505437244   0.875000000000000   1.0000000
B2   B   0.112371401578058   0.890118174384542   0.375000000000000   1.0000000
B2   B   0.777742334821718   0.388873897478094   0.875000000000000   1.0000000
B2   B   0.444329909140441   0.889205660516728   0.375000000000000   1.0000000
B2   B   0.270595819238460   0.385329660153515   0.375000000000000   1.0000000
B2   B   0.277235671091692   0.554810205872658   0.375000000000000   1.0000000
B2   B   0.776509435761685   0.887517894541664   0.375000000000000   1.0000000
B2   B   0.944695849129968   0.388555368315798   0.375000000000000   1.0000000
B2   B   0.111085710758422   0.555539604385725   0.875000000000000   1.0000000
B2   B   0.277752338644180   0.055538937446998   0.875000000000000   1.0000000
B2   B   0.777738347521521   0.555535964355152   0.875000000000000   1.0000000
B2   B   0.611079473388092   0.055533975901335   0.875000000000000   1.0000000
B2   B   0.944416470156066   0.055530488922816   0.875000000000000   1.0000000
B2   B   0.055462103675179   0.111056792691899   0.124948128811605   1.0000000
B2   B   0.555556499986898   0.611065759956293   0.125280800652057   1.0000000
B2   B   0.388859017740067   0.111158436552570   0.125122460331250   1.0000000
B2   B   0.888814091431187   0.611079942286820   0.125051142094178   1.0000000
B2   B   0.722157853415968   0.111063452480736   0.124985979596396   1.0000000
B2   B   0.055503766654557   0.777745838452719   0.625002556230881   1.0000000
B2   B   0.388847927981450   0.777723790314148   0.624996602755098   1.0000000
B2   B   0.222144824578248   0.277734468076255   0.624962211751922   1.0000000
B2   B   0.722182772937521   0.777754306434885   0.624983649139001   1.0000000
B2   B   0.555522354139407   0.277859795568702   0.624717189479008   1.0000000
B2   B   0.888820234479408   0.277721534295135   0.625029338245467   1.0000000
B2   B   0.222182844723066   0.777743512680318   0.124991231651363   1.0000000
B2   B   0.055464372326505   0.277710465351885   0.124947689379025   1.0000000
B2   B   0.388889025264283   0.277884736764308   0.125418725764208   1.0000000
B2   B   0.555518868344244   0.777720465294249   0.125051512140089   1.0000000
B2   B   0.888823377727429   0.777757783811881   0.124991408291534   1.0000000
B2   B   0.722171477993179   0.277756661719581   0.125022844952930   1.0000000
B2   B   0.055493589785270   0.944415186806665   0.625020354377407   1.0000000
B2   B   0.388845462901640   0.944427985101118   0.624987185139609   1.0000000
B2   B   0.222173634793703   0.444380409847508   0.624965602160960   1.0000000
B2   B   0.555492091711048   0.444474509249961   0.624036243556536   1.0000000
B2   B   0.722161037334522   0.944393786653020   0.625011835726291   1.0000000
B2   B   0.888830930276748   0.444410716022316   0.624985083548266   1.0000000
B2   B   0.055499487060433   0.444394231996607   0.124983058675476   1.0000000
B2   B   0.222181793410261   0.944434050627181   0.125009876603598   1.0000000
B2   B   0.555497060553231   0.944397692615714   0.125007327743198   1.0000000
B2   B   0.388901365910948   0.444385934761900   0.125483018573565   1.0000000
B2   B   0.888817768119466   0.944403368657397   0.124968083260652   1.0000000
B2   B   0.722122292023322   0.444434745344660   0.125231677139387   1.0000000
B2   B   0.222183743905501   0.611057849465197   0.625002808776649   1.0000000
B2   B   0.055462103675179   0.111056792691899   0.625051871188396   1.0000000
B2   B   0.555556499986898   0.611065759956293   0.624719199347944   1.0000000
B2   B   0.388859017740067   0.111158436552570   0.624877539668750   1.0000000
B2   B   0.888814091431187   0.611079942286820   0.624948857905822   1.0000000
B2   B   0.055508137107320   0.611071029057728   0.124994590564097   1.0000000
B2   B   0.722157853415968   0.111063452480736   0.625014020403604   1.0000000
B2   B   0.222166546736389   0.111113601071140   0.125037581246040   1.0000000
B2   B   0.388871136433828   0.611035645009430   0.125132891534991   1.0000000
B2   B   0.722139920941056   0.611108956763549   0.125150146607244   1.0000000
B2   B   0.555498971986203   0.111105192244370   0.125048044398185   1.0000000
B2   B   0.388871136433828   0.611035645009430   0.624867108465008   1.0000000
B2   B   0.888804441389216   0.111050046252358   0.124959161189979   1.0000000
B2   B   0.222182844723066   0.777743512680318   0.625008768348637   1.0000000
B2   B   0.055464372326505   0.277710465351885   0.625052310620975   1.0000000
B2   B   0.388889025264283   0.277884736764308   0.624581274235792   1.0000000
B2   B   0.555518868344244   0.777720465294249   0.624948487859911   1.0000000
B2   B   0.888823377727429   0.777757783811881   0.625008591708465   1.0000000
B2   B   0.722171477993179   0.277756661719581   0.624977155047071   1.0000000
B2   B   0.055503766654557   0.777745838452719   0.124997443769119   1.0000000
B2   B   0.388847927981450   0.777723790314148   0.125003397244902   1.0000000
B2   B   0.222144824578248   0.277734468076255   0.125037788248078   1.0000000
B2   B   0.722182772937521   0.777754306434885   0.125016350860999   1.0000000
B2   B   0.555522354139407   0.277859795568702   0.125282810520999   1.0000000
B2   B   0.888820234479408   0.277721534295135   0.124970661754533   1.0000000
B2   B   0.055499487060433   0.444394231996607   0.625016941324524   1.0000000
B2   B   0.222181793410261   0.944434050627181   0.624990123396402   1.0000000
B2   B   0.555497060553231   0.944397692615714   0.624992672256802   1.0000000
B2   B   0.388901365910948   0.444385934761900   0.624516981426434   1.0000000
B2   B   0.888817768119466   0.944403368657397   0.625031916739347   1.0000000
B2   B   0.055493589785270   0.944415186806665   0.124979645622593   1.0000000
B2   B   0.722122292023322   0.444434745344660   0.624768322860613   1.0000000
B2   B   0.388845462901640   0.944427985101118   0.125012814860392   1.0000000
B2   B   0.222173634793703   0.444380409847508   0.125034397839039   1.0000000
B2   B   0.222183743905501   0.611057849465197   0.124997191223350   1.0000000
B2   B   0.555492091711048   0.444474509249961   0.125963756443471   1.0000000
B2   B   0.722161037334522   0.944393786653020   0.124988164273710   1.0000000
B2   B   0.888830930276748   0.444410716022316   0.125014916451734   1.0000000
B2   B   0.055508137107320   0.611071029057728   0.625005409435904   1.0000000
B2   B   0.222166546736389   0.111113601071140   0.624962418753960   1.0000000
B2   B   0.722139920941056   0.611108956763549   0.624849853392756   1.0000000
B2   B   0.555498971986203   0.111105192244370   0.624951955601816   1.0000000
B2   B   0.888804441389216   0.111050046252358   0.625040838810020   1.0000000


