data_1
_audit_creation_method   'vasp2cif'
_cell_length_a    17.5279
_cell_length_b    17.52789999999977
_cell_length_c    15.0
_cell_angle_alpha    90.0
_cell_angle_beta    90.0
_cell_angle_gamma    120.00000000000043

_symmetry_space_group_name_H-M    'P 1'
loop_
_atom_site_label
_atom_site_type_symbol
_atom_site_fract_x
_atom_site_fract_y
_atom_site_fract_z
_atom_site_occupancy
B2   B   0.906554981046032   0.952122997023930   0.110943345344343   1.0000000
B2   B   0.907055558235352   0.095412205136353   0.110576013852123   1.0000000
B2   B   0.907165903674887   0.238362262090991   0.110598754615467   1.0000000
B2   B   0.906949843207587   0.381100944749058   0.110393845619915   1.0000000
B2   B   0.906862423201435   0.523771471666224   0.110374045532463   1.0000000
B2   B   0.907697140443121   0.667437851712605   0.111359909306684   1.0000000
B2   B   0.906197204538863   0.809005570751874   0.111796117676793   1.0000000
B2   B   0.049530603922690   0.952298041696176   0.111085835487262   1.0000000
B2   B   0.049924128915919   0.095523116050018   0.110605811726876   1.0000000
B2   B   0.050580096649723   0.238887770306608   0.110655699846803   1.0000000
B2   B   0.050434577282064   0.381221389676964   0.111093438926670   1.0000000
B2   B   0.050608278992811   0.523695814220735   0.111186911512375   1.0000000
B2   B   0.049973488842357   0.666548858985258   0.111232868108788   1.0000000
B2   B   0.050003032935001   0.809734642200966   0.111476801831022   1.0000000
B2   B   0.192576555073730   0.952294834206977   0.110791334278769   1.0000000
B2   B   0.192677459068020   0.095461192903572   0.110266711766687   1.0000000
B2   B   0.193351053188279   0.238858971815143   0.110422575117914   1.0000000
B2   B   0.194428809931296   0.382199502203382   0.112176771891279   1.0000000
B2   B   0.194698899738140   0.523952880990184   0.113566008345768   1.0000000
B2   B   0.192899875860655   0.666372882278400   0.112538746882527   1.0000000
B2   B   0.192765261300841   0.809336582127758   0.111186137296320   1.0000000
B2   B   0.335456575803222   0.952026296816534   0.110357942433994   1.0000000
B2   B   0.335089623100062   0.094972492389118   0.110207548172989   1.0000000
B2   B   0.335779628101372   0.238961228987442   0.110062763539084   1.0000000
B2   B   0.336606202802226   0.382565463277094   0.111625894732205   1.0000000
B2   B   0.335460465039902   0.665358060706450   0.112836709671509   1.0000000
B2   B   0.335576472192065   0.808796954785305   0.110511469471377   1.0000000
B2   B   0.478292587852175   0.951937625414403   0.109711588573819   1.0000000
B2   B   0.478185658270219   0.095041392681756   0.110161721880646   1.0000000
B2   B   0.477208444615020   0.237407697580785   0.109999696227699   1.0000000
B2   B   0.478933392528670   0.381959369704237   0.110923515729315   1.0000000
B2   B   0.477160551248431   0.664833157671598   0.111768197024480   1.0000000
B2   B   0.478129550070852   0.808646787327773   0.109174637200147   1.0000000
B2   B   0.621023580908531   0.951899420116299   0.109391082905694   1.0000000
B2   B   0.621151640707257   0.095073509088861   0.110141907026947   1.0000000
B2   B   0.621026823136795   0.238143427060507   0.110169040888859   1.0000000
B2   B   0.618756761393092   0.379731469033314   0.110103839984661   1.0000000
B2   B   0.619196210758613   0.665017363008981   0.112328602885665   1.0000000
B2   B   0.620412952904413   0.808379065328502   0.109297768751838   1.0000000
B2   B   0.763706849538111   0.951954620234690   0.110069411198188   1.0000000
B2   B   0.764054992463818   0.095227665168279   0.110283328419252   1.0000000
B2   B   0.764019460116557   0.238358465204991   0.110395505774217   1.0000000
B2   B   0.763431954065192   0.381441909727288   0.110016792684846   1.0000000
B2   B   0.764393955678076   0.525684701767040   0.110523818984313   1.0000000
B2   B   0.763091864418147   0.665226078373545   0.112493964866999   1.0000000
B2   B   0.763143798702311   0.808610213227173   0.110983594259941   1.0000000
C2   C   0.337411341564530   0.523870484116807   0.125025148250728   1.0000000
C2   C   0.478097416624296   0.524504522049328   0.124220533599742   1.0000000
C2   C   0.619003496497821   0.523930970894707   0.112202473574531   1.0000000
C2   C   0.664696391133740   0.478646665385793   0.110425981553882   1.0000000
N2   N   0.954056813315962   0.904447717158359   0.111355225393888   1.0000000
N2   N   0.954528872174888   0.047610175324285   0.110705993685812   1.0000000
N2   N   0.955096441715288   0.190895226594628   0.110591845988515   1.0000000
N2   N   0.955009317383672   0.333619072306699   0.110620840847583   1.0000000
N2   N   0.955172135438112   0.476348793814678   0.110408392317989   1.0000000
N2   N   0.954863501998747   0.619277151723022   0.110791298132968   1.0000000
N2   N   0.954845253707608   0.762446502936536   0.111738266687358   1.0000000
N2   N   0.097418457438556   0.904913944311339   0.111188857906540   1.0000000
N2   N   0.097379348118148   0.047758783432329   0.110604024829558   1.0000000
N2   N   0.098033142677661   0.191075713306743   0.110482520033728   1.0000000
N2   N   0.098875124429520   0.334438599261361   0.110981946832717   1.0000000
N2   N   0.099101932941809   0.476299389437884   0.111617780988814   1.0000000
N2   N   0.097793058146567   0.618933332259283   0.111621553755202   1.0000000
N2   N   0.097566937855581   0.761920359067604   0.111375197415417   1.0000000
N2   N   0.240245017649477   0.904611685121739   0.110746937790000   1.0000000
N2   N   0.240011676448643   0.047562006021446   0.110362773815220   1.0000000
N2   N   0.240607737186858   0.191072324434893   0.109947721910381   1.0000000
N2   N   0.241755446774139   0.334578496529406   0.111241749440746   1.0000000
N2   N   0.244449695505051   0.477485554683330   0.114887469153537   1.0000000
N2   N   0.240635206642999   0.618839379400903   0.114321925222767   1.0000000
N2   N   0.240440354300105   0.761620478388126   0.111443497734272   1.0000000
N2   N   0.383067414528839   0.904160261912367   0.110015378492708   1.0000000
N2   N   0.382853565615205   0.047359914996979   0.110228596284838   1.0000000
N2   N   0.382309651226262   0.190308013495054   0.109980413775206   1.0000000
N2   N   0.383891589318860   0.335180918018811   0.110622767228235   1.0000000
N2   N   0.385519298575656   0.479241526135412   0.114590329522001   1.0000000
N2   N   0.382125378849801   0.616529669454591   0.114527054347370   1.0000000
N2   N   0.383169340220504   0.760750032866935   0.110198685237417   1.0000000
N2   N   0.525773141645081   0.903975002277055   0.109123625944250   1.0000000
N2   N   0.525789844769360   0.047226898823007   0.110026649278979   1.0000000
N2   N   0.525415614653860   0.190269253572800   0.110110556016988   1.0000000
N2   N   0.523868765707504   0.332472921524373   0.110008139830626   1.0000000
N2   N   0.526332088953528   0.479404568682089   0.112832815808851   1.0000000
N2   N   0.524459761071153   0.616878395859983   0.113813399468682   1.0000000
N2   N   0.525047145135938   0.760073007066908   0.108822500606182   1.0000000
N2   N   0.668274141866242   0.903791602133711   0.109325076432792   1.0000000
N2   N   0.668701280194069   0.047216165197716   0.109959366497270   1.0000000
N2   N   0.668649332213102   0.190277245698115   0.110339025847019   1.0000000
N2   N   0.667927022179330   0.332983632582275   0.109983719404312   1.0000000
N2   N   0.665964732389564   0.616352427503311   0.113522121756707   1.0000000
N2   N   0.667523115472522   0.760198162835346   0.110334458453595   1.0000000
N2   N   0.811037104075395   0.904041698351470   0.110577298972773   1.0000000
N2   N   0.811611344218737   0.047406435207941   0.110316654479189   1.0000000
N2   N   0.811788212131152   0.190573647743780   0.110505997219811   1.0000000
N2   N   0.811553401200191   0.333655134407580   0.110212171343147   1.0000000
N2   N   0.811706026401462   0.476854816814756   0.110023159681522   1.0000000
N2   N   0.812828055702967   0.620598150402460   0.111515530803712   1.0000000
N2   N   0.810317467891947   0.760795644334742   0.112068076300514   1.0000000


