data_1
_audit_creation_method   'vasp2cif'
_cell_length_a    17.52789999999977
_cell_length_b    17.52789999999977
_cell_length_c    15.0
_cell_angle_alpha    90.0
_cell_angle_beta    90.0
_cell_angle_gamma    119.99999999999916

_symmetry_space_group_name_H-M    'P 1'
loop_
_atom_site_label
_atom_site_type_symbol
_atom_site_fract_x
_atom_site_fract_y
_atom_site_fract_z
_atom_site_occupancy
B2   B   0.903809142174221   0.951210589434372   0.110380040634288   1.0000000
B2   B   0.904623547264641   0.094497454264716   0.110322582739909   1.0000000
B2   B   0.905164635902779   0.237682853021332   0.110581059641340   1.0000000
B2   B   0.905693188397146   0.380876045644776   0.110817322969173   1.0000000
B2   B   0.905899034522727   0.524021709342321   0.110736832865718   1.0000000
B2   B   0.905691831232318   0.666963583237663   0.110579523180517   1.0000000
B2   B   0.904398298901956   0.809112099617858   0.110455218869962   1.0000000
B2   B   0.047905268298912   0.953193258665574   0.110246676197275   1.0000000
B2   B   0.047743488059664   0.095425891484493   0.110006538480615   1.0000000
B2   B   0.047907664235338   0.238068398918066   0.110011330329299   1.0000000
B2   B   0.047929326285893   0.381146617640198   0.110463413701820   1.0000000
B2   B   0.048016153606133   0.524252284433011   0.110626897450882   1.0000000
B2   B   0.048006111393985   0.667422996187170   0.110458242170717   1.0000000
B2   B   0.047830651375887   0.810364383131984   0.110464808745858   1.0000000
B2   B   0.190780603606374   0.953810728629918   0.110216272400282   1.0000000
B2   B   0.192072582897247   0.097591216378269   0.110213287420456   1.0000000
B2   B   0.191498170312690   0.239373901667960   0.110345599010501   1.0000000
B2   B   0.190443220940646   0.381632473093775   0.110359750401401   1.0000000
B2   B   0.190273106415768   0.524691364868663   0.111058533670610   1.0000000
B2   B   0.190064658713243   0.667855271725843   0.110668006801321   1.0000000
B2   B   0.190342906591447   0.810849345671357   0.110332972835601   1.0000000
B2   B   0.333409127419252   0.953972231556450   0.110387435822968   1.0000000
B2   B   0.333978558981350   0.096932798475769   0.110285192136589   1.0000000
B2   B   0.338111702943811   0.243181440678929   0.111685667607408   1.0000000
B2   B   0.334001597576768   0.382953402058463   0.111340521272971   1.0000000
B2   B   0.333122201377001   0.525720445959600   0.112272738016739   1.0000000
B2   B   0.332645718014704   0.669831434063178   0.113039116064160   1.0000000
B2   B   0.332571496639597   0.811402625713771   0.110762535057055   1.0000000
B2   B   0.476095192766003   0.953536922137608   0.111111758447401   1.0000000
B2   B   0.476673262422754   0.095836021165222   0.110683906908398   1.0000000
B2   B   0.476364602785666   0.237829039329083   0.112633865095466   1.0000000
B2   B   0.474023475348417   0.810779788679782   0.113086028322138   1.0000000
B2   B   0.618885518272505   0.951707619213139   0.111729383626697   1.0000000
B2   B   0.619528658331687   0.094965589556867   0.110893451073829   1.0000000
B2   B   0.620180745320380   0.237695912870629   0.111212918169003   1.0000000
B2   B   0.622177751132327   0.381041781265295   0.112858708656216   1.0000000
B2   B   0.619338838930091   0.519538787933133   0.111239813871353   1.0000000
B2   B   0.615551629943178   0.659657594797073   0.110320560754292   1.0000000
B2   B   0.618279055074324   0.806597721770334   0.112673399366706   1.0000000
B2   B   0.761264476946597   0.950888753473508   0.111005639456404   1.0000000
B2   B   0.762034857677043   0.094458958168357   0.110826651840080   1.0000000
B2   B   0.762685288653971   0.237619906106085   0.110838056040551   1.0000000
B2   B   0.763708223486404   0.380726302733590   0.110955119223779   1.0000000
B2   B   0.763898230085216   0.523771818115630   0.110763082103430   1.0000000
B2   B   0.761973819811651   0.664887745455485   0.110609221245582   1.0000000
B2   B   0.759604557947416   0.806338770755747   0.110688592455707   1.0000000
C2   C   0.470695872138974   0.521339541299250   0.110299321697745   1.0000000
C2   C   0.514036470226568   0.470357388120587   0.111694772224896   1.0000000
N2   N   0.952161252545163   0.904461569022443   0.110326326940946   1.0000000
N2   N   0.952067022832222   0.046805491507382   0.110181775283670   1.0000000
N2   N   0.952567838053096   0.189944970526212   0.110248451183439   1.0000000
N2   N   0.952867335423241   0.333076070940826   0.110660993014000   1.0000000
N2   N   0.953033424708301   0.476228934451991   0.110811291027678   1.0000000
N2   N   0.952969455658172   0.619321617974911   0.110599403339512   1.0000000
N2   N   0.952493282380410   0.762089113666360   0.110500659337799   1.0000000
N2   N   0.095432762228688   0.905654047553381   0.110374523677085   1.0000000
N2   N   0.096136429227335   0.048756626604186   0.110056648826475   1.0000000
N2   N   0.095788850624029   0.190831796298750   0.109860685329828   1.0000000
N2   N   0.095348296303390   0.333471588850488   0.110053370781992   1.0000000
N2   N   0.095228897723976   0.476465445074600   0.110610630931480   1.0000000
N2   N   0.095131500707221   0.619596906612708   0.110396627537899   1.0000000
N2   N   0.095208804845010   0.762719040108708   0.110390940865314   1.0000000
N2   N   0.238132892914720   0.906114392697236   0.110299591247070   1.0000000
N2   N   0.238743016871914   0.049170708315902   0.110045868587776   1.0000000
N2   N   0.240772512214339   0.193622265080850   0.110603649643748   1.0000000
N2   N   0.238455101308889   0.334670758587770   0.110478315512225   1.0000000
N2   N   0.237521228849993   0.476818412709206   0.110996915880669   1.0000000
N2   N   0.237002798785109   0.619953855253642   0.111341470704000   1.0000000
N2   N   0.237524212654590   0.763147235684143   0.110386602008137   1.0000000
N2   N   0.380807191808316   0.906397521440398   0.110682263182661   1.0000000
N2   N   0.381386998396523   0.049068434842246   0.110295754441311   1.0000000
N2   N   0.382008204852128   0.192168555063324   0.110930358179720   1.0000000
N2   N   0.382107702696642   0.338716123974916   0.113524979245794   1.0000000
N2   N   0.380624080921495   0.478509350853218   0.110176359510749   1.0000000
N2   N   0.371859730893344   0.617039992237956   0.117370326788808   1.0000000
N2   N   0.379672936627169   0.764024257811231   0.111653468817022   1.0000000
N2   N   0.523738664472585   0.906240589771347   0.111991038994324   1.0000000
N2   N   0.524296772135143   0.048377456158198   0.110761763953599   1.0000000
N2   N   0.525056982331839   0.190660216944017   0.111191152068717   1.0000000
N2   N   0.530527239258244   0.329830777084520   0.117124125218178   1.0000000
N2   N   0.519660029856454   0.606900491216841   0.109096592065938   1.0000000
N2   N   0.526784999786681   0.771567417977082   0.116046599311934   1.0000000
N2   N   0.666184737818604   0.903304913926178   0.111826439671485   1.0000000
N2   N   0.666908728348802   0.047062950060425   0.111061138508275   1.0000000
N2   N   0.667594917655957   0.190080737840361   0.110810271309076   1.0000000
N2   N   0.668988046461199   0.332801087686877   0.111377853004591   1.0000000
N2   N   0.668649893480705   0.475706197071899   0.111232564558791   1.0000000
N2   N   0.665973766991890   0.614909293941363   0.110649393438138   1.0000000
N2   N   0.663205708130228   0.755983167924839   0.110966193465575   1.0000000
N2   N   0.807999365972188   0.902266696861369   0.110668007160955   1.0000000
N2   N   0.809281996666473   0.046428014748894   0.110592526969376   1.0000000
N2   N   0.810002112995519   0.189840164779429   0.110773054869823   1.0000000
N2   N   0.810715524687991   0.332968824958099   0.110838727451845   1.0000000
N2   N   0.810918555148570   0.476073612540371   0.110749586516221   1.0000000
N2   N   0.810453594958965   0.618601930843403   0.110561521868428   1.0000000
N2   N   0.808570033200378   0.760105319201984   0.110495489274847   1.0000000


