data_1
_audit_creation_method   'vasp2cif'
_cell_length_a    17.52789999999977
_cell_length_b    17.52789999999977
_cell_length_c    15.0
_cell_angle_alpha    90.0
_cell_angle_beta    90.0
_cell_angle_gamma    119.99999999999916

_symmetry_space_group_name_H-M    'P 1'
loop_
_atom_site_label
_atom_site_type_symbol
_atom_site_fract_x
_atom_site_fract_y
_atom_site_fract_z
_atom_site_occupancy
B2   B   0.908678738639995   0.953280258727378   0.110717060294645   1.0000000
B2   B   0.908576115200599   0.095563397810638   0.110805006266157   1.0000000
B2   B   0.908483957346980   0.238049767581665   0.110752642725922   1.0000000
B2   B   0.908289491618511   0.380862918560145   0.110692733843437   1.0000000
B2   B   0.907181617297885   0.523699809915869   0.110778355376407   1.0000000
B2   B   0.905632943782512   0.666154749626747   0.110824916557021   1.0000000
B2   B   0.905366390566477   0.807962156926231   0.110711282301995   1.0000000
B2   B   0.050863148992056   0.953773945289142   0.110688828564083   1.0000000
B2   B   0.052395640336847   0.097156695258903   0.110787222431987   1.0000000
B2   B   0.051758042808217   0.238993362479227   0.110848705508842   1.0000000
B2   B   0.050675454521613   0.381444310550213   0.110746944560665   1.0000000
B2   B   0.049330332727741   0.524539239251645   0.110724757472663   1.0000000
B2   B   0.048889771549919   0.667547355451069   0.110775092510438   1.0000000
B2   B   0.049501759407433   0.810452673743770   0.110761883420224   1.0000000
B2   B   0.193630763300701   0.954609621887877   0.110721278776356   1.0000000
B2   B   0.196423637084265   0.099439234210042   0.110708887371102   1.0000000
B2   B   0.196435115048391   0.241367399050111   0.110802789380797   1.0000000
B2   B   0.193848546288102   0.382252387403375   0.110791616706034   1.0000000
B2   B   0.190879640400408   0.525083155404993   0.110754755239037   1.0000000
B2   B   0.191063289528065   0.668243856563472   0.110745058870693   1.0000000
B2   B   0.192356362004601   0.811234848763554   0.110733989515775   1.0000000
B2   B   0.336064569889608   0.954289608241591   0.110720818351470   1.0000000
B2   B   0.337624421608426   0.098195657305403   0.110765191154772   1.0000000
B2   B   0.343439082782971   0.246328985151150   0.110795900817603   1.0000000
B2   B   0.340163310689925   0.385272311661176   0.110771345079735   1.0000000
B2   B   0.331499206267844   0.526542462856843   0.110706770930358   1.0000000
B2   B   0.332402454114571   0.668949537161414   0.110756591416965   1.0000000
B2   B   0.334971339859273   0.811424658430598   0.110764662569066   1.0000000
B2   B   0.478730525311685   0.952930252595569   0.110762808774042   1.0000000
B2   B   0.479647877610415   0.095723163913349   0.110782169532624   1.0000000
B2   B   0.481180462701786   0.238999153862522   0.110810933900675   1.0000000
B2   B   0.496254026409707   0.393191085612273   0.110791975958783   1.0000000
B2   B   0.472691770043748   0.667569764203720   0.110649067045677   1.0000000
B2   B   0.477780249729613   0.810225338904161   0.110732464346329   1.0000000
B2   B   0.621741851751628   0.952262340835253   0.110740388301754   1.0000000
B2   B   0.622334181628038   0.094616766354790   0.110742650226499   1.0000000
B2   B   0.623057856875153   0.236713464092127   0.110757108542754   1.0000000
B2   B   0.624882841658891   0.378192855891586   0.110806188396077   1.0000000
B2   B   0.608571955269234   0.504936830303309   0.110767069352987   1.0000000
B2   B   0.620408479643671   0.809184098254892   0.110677133288478   1.0000000
B2   B   0.765064620644289   0.952262869547535   0.110760180778321   1.0000000
B2   B   0.765353206816433   0.094851621359013   0.110743793377931   1.0000000
B2   B   0.765728990696435   0.237413125441598   0.110697711160981   1.0000000
B2   B   0.766340406701560   0.380089631671460   0.110727032271010   1.0000000
B2   B   0.764213504458969   0.521941031844375   0.110785139169825   1.0000000
B2   B   0.758711313978802   0.660781558118663   0.110693200250899   1.0000000
B2   B   0.766251385200509   0.809992256502014   0.110682666399368   1.0000000
O2   O   0.617574063179876   0.656872391929847   0.110253009477717   1.0000000
N2   N   0.954847726563539   0.904424581538270   0.110671013967234   1.0000000
N2   N   0.956842669715207   0.048692872947360   0.110764326259131   1.0000000
N2   N   0.956401647224809   0.190843967592851   0.110810931747583   1.0000000
N2   N   0.955786399010205   0.333307240237102   0.110703288888487   1.0000000
N2   N   0.954703915745436   0.476193911847225   0.110707824911552   1.0000000
N2   N   0.953714884137903   0.619093183274344   0.110807942145175   1.0000000
N2   N   0.953825808702928   0.761558058441150   0.110764415159741   1.0000000
N2   N   0.098106317959097   0.906085463255760   0.110697015870484   1.0000000
N2   N   0.100201521185789   0.049982142927037   0.110690600440389   1.0000000
N2   N   0.100600701368429   0.192609587665099   0.110821926354431   1.0000000
N2   N   0.098758184607595   0.334148629902132   0.110792396132692   1.0000000
N2   N   0.096529070036078   0.476739626127356   0.110718236431110   1.0000000
N2   N   0.096215644425086   0.619922878606335   0.110722868193042   1.0000000
N2   N   0.096985731651788   0.762971838088051   0.110745115211921   1.0000000
N2   N   0.240714324260451   0.906632565347280   0.110698379055996   1.0000000
N2   N   0.242376915843469   0.050364066793901   0.110699554414677   1.0000000
N2   N   0.246245693313953   0.196056938375640   0.110742794837180   1.0000000
N2   N   0.244006052362349   0.336642261071279   0.110788166729431   1.0000000
N2   N   0.237911437284471   0.477208278944493   0.110738498863691   1.0000000
N2   N   0.237835064105686   0.620383852664808   0.110736448008127   1.0000000
N2   N   0.239618428977617   0.763546807045979   0.110736926272372   1.0000000
N2   N   0.383363524524973   0.906409931635335   0.110733603895946   1.0000000
N2   N   0.384375328492325   0.049546097139449   0.110741249459247   1.0000000
N2   N   0.386451056936678   0.194016625120500   0.110783369703058   1.0000000
N2   N   0.395680031874937   0.344989473853319   0.110783399123597   1.0000000
N2   N   0.378957630865639   0.479630155221158   0.110652738284437   1.0000000
N2   N   0.378174068923351   0.620899673470766   0.110728122932351   1.0000000
N2   N   0.382249496564491   0.763794720777287   0.110744145852832   1.0000000
N2   N   0.526233436750621   0.905166541405459   0.110736818861294   1.0000000
N2   N   0.526995253704534   0.047850613111736   0.110752890049251   1.0000000
N2   N   0.527954403855123   0.190527643100451   0.110780176177313   1.0000000
N2   N   0.530341245707689   0.333530706446292   0.110793489165427   1.0000000
N2   N   0.468802194034049   0.525007885726062   0.110702904879278   1.0000000
N2   N   0.504276183630490   0.608100168667195   0.110476529828554   1.0000000
N2   N   0.524953874863357   0.761904638716458   0.110640530862197   1.0000000
N2   N   0.669428401203452   0.904866232771028   0.110720993379915   1.0000000
N2   N   0.669962776780886   0.047247139951549   0.110725326729698   1.0000000
N2   N   0.670524790762993   0.189471045976344   0.110706708217153   1.0000000
N2   N   0.671716850041478   0.331346029610414   0.110739152003163   1.0000000
N2   N   0.669881271793545   0.472568072170497   0.110795047283471   1.0000000
N2   N   0.661082569843472   0.603817445739077   0.110654925336015   1.0000000
N2   N   0.674205214590349   0.770074611501003   0.110648946948198   1.0000000
N2   N   0.813647307384317   0.905602669884498   0.110716751759997   1.0000000
N2   N   0.813132494051808   0.047575385742795   0.110764404859720   1.0000000
N2   N   0.813281323957915   0.190032573268233   0.110706462470188   1.0000000
N2   N   0.813525056975214   0.332587419387838   0.110673672413543   1.0000000
N2   N   0.812548184840000   0.475192240939994   0.110748429951071   1.0000000
N2   N   0.809822931460400   0.616897400752023   0.110770463506902   1.0000000
N2   N   0.808911225040617   0.757876137827592   0.110650427812738   1.0000000


