data_1
_audit_creation_method   'vasp2cif'
_cell_length_a    14.93631414619966
_cell_length_b    14.936314146199727
_cell_length_c    13.341276283792837
_cell_angle_alpha    90.0
_cell_angle_beta    90.0
_cell_angle_gamma    119.99999999999984

_symmetry_space_group_name_H-M    'P 1'
loop_
_atom_site_label
_atom_site_type_symbol
_atom_site_fract_x
_atom_site_fract_y
_atom_site_fract_z
_atom_site_occupancy
Sb2   Sb   0.444444444444443   0.388888888888886   0.375000000000000   1.0000000
N2   N   0.111150841481747   0.055602287136415   0.125213078680085   1.0000000
N2   N   0.611038383882724   0.555476209198047   0.121161055970585   1.0000000
N2   N   0.444451445654692   0.055602287136415   0.125213078680085   1.0000000
N2   N   0.944425806591143   0.555544039638959   0.126016514397153   1.0000000
N2   N   0.777777777777779   0.055555555555557   0.124677395521636   1.0000000
N2   N   0.111111111111114   0.722222222222221   0.623898264529973   1.0000000
N2   N   0.444451445654692   0.722182491851605   0.624786921319950   1.0000000
N2   N   0.277857124135261   0.222294949450655   0.628838944029357   1.0000000
N2   N   0.777731046196876   0.722182491851605   0.624786921319950   1.0000000
N2   N   0.611089822677213   0.222243510656185   0.625737500372336   1.0000000
N2   N   0.944451858943984   0.222223292231956   0.625006501582319   1.0000000
N2   N   0.277789293694278   0.722215100285405   0.126016514397151   1.0000000
N2   N   0.111153687979041   0.222243510656185   0.124262499627695   1.0000000
N2   N   0.444437825315368   0.222294949450655   0.121161055970573   1.0000000
N2   N   0.611089822677213   0.722179645354269   0.124262499627695   1.0000000
N2   N   0.944425806591143   0.722215100285405   0.126016514397153   1.0000000
N2   N   0.777771433287957   0.222223292231956   0.124993498417727   1.0000000
N2   N   0.111118233047891   0.888907526742186   0.623983485602849   1.0000000
N2   N   0.444452563982019   0.888892948657652   0.624264800427657   1.0000000
N2   N   0.277857124135261   0.388895508017961   0.628838944029357   1.0000000
N2   N   0.611038383882724   0.388895508017961   0.628838944029357   1.0000000
N2   N   0.777771433287957   0.888881474389344   0.625006501582319   1.0000000
N2   N   0.944440384675677   0.388880769351309   0.624264800427657   1.0000000
N2   N   0.111150841481747   0.388881887678637   0.125213078680085   1.0000000
N2   N   0.277789293694278   0.888907526742186   0.126016514397151   1.0000000
N2   N   0.611110041101435   0.888881474389344   0.124993498417727   1.0000000
N2   N   0.444444444444443   0.388888888888886   0.110163427593234   1.0000000
N2   N   0.944440384675677   0.888892948657652   0.125735199572351   1.0000000
N2   N   0.777731046196876   0.388881887678637   0.125213078680085   1.0000000
N2   N   0.277801542155307   0.555531791178190   0.625161781732976   1.0000000
N2   N   0.111150841481747   0.055602287136415   0.624786921319950   1.0000000
N2   N   0.611038383882724   0.555476209198047   0.628838944029357   1.0000000
N2   N   0.444451445654692   0.055602287136415   0.624786921319950   1.0000000
N2   N   0.944425806591143   0.555544039638959   0.623983485602849   1.0000000
N2   N   0.111118233047891   0.555544039638959   0.126016514397151   1.0000000
N2   N   0.777777777777779   0.055555555555557   0.625322604478312   1.0000000
N2   N   0.277801542155307   0.055603084310549   0.124838218267071   1.0000000
N2   N   0.444437825315368   0.555476209198047   0.121161055970575   1.0000000
N2   N   0.777730249022722   0.555531791178190   0.124838218267071   1.0000000
N2   N   0.611110041101435   0.055561900045343   0.124993498417727   1.0000000
N2   N   0.444437825315368   0.555476209198047   0.628838944029357   1.0000000
N2   N   0.944451858943984   0.055561900045343   0.124993498417727   1.0000000
N2   N   0.277789293694278   0.722215100285405   0.623983485602849   1.0000000
N2   N   0.111153687979041   0.222243510656185   0.625737500372336   1.0000000
N2   N   0.444437825315368   0.222294949450655   0.628838944029357   1.0000000
N2   N   0.611089822677213   0.722179645354269   0.625737500372336   1.0000000
N2   N   0.944425806591143   0.722215100285405   0.623983485602849   1.0000000
N2   N   0.777771433287957   0.222223292231956   0.625006501582319   1.0000000
N2   N   0.111111111111114   0.722222222222221   0.126101735470008   1.0000000
N2   N   0.444451445654692   0.722182491851605   0.125213078680085   1.0000000
N2   N   0.277857124135261   0.222294949450655   0.121161055970575   1.0000000
N2   N   0.777731046196876   0.722182491851605   0.125213078680085   1.0000000
N2   N   0.611089822677213   0.222243510656185   0.124262499627695   1.0000000
N2   N   0.944451858943984   0.222223292231956   0.124993498417727   1.0000000
N2   N   0.111150841481747   0.388881887678637   0.624786921319950   1.0000000
N2   N   0.277789293694278   0.888907526742186   0.623983485602849   1.0000000
N2   N   0.611110041101435   0.888881474389344   0.625006501582319   1.0000000
N2   N   0.444444444444443   0.388888888888886   0.639836572406747   1.0000000
N2   N   0.944440384675677   0.888892948657652   0.624264800427657   1.0000000
N2   N   0.111118233047891   0.888907526742186   0.126016514397151   1.0000000
N2   N   0.777731046196876   0.388881887678637   0.624786921319950   1.0000000
N2   N   0.444452563982019   0.888892948657652   0.125735199572350   1.0000000
N2   N   0.277857124135261   0.388895508017961   0.121161055970586   1.0000000
N2   N   0.277801542155307   0.555531791178190   0.124838218267071   1.0000000
N2   N   0.611038383882724   0.388895508017961   0.121161055970575   1.0000000
N2   N   0.777771433287957   0.888881474389344   0.124993498417727   1.0000000
N2   N   0.944440384675677   0.388880769351309   0.125735199572351   1.0000000
N2   N   0.111118233047891   0.555544039638959   0.623983485602849   1.0000000
N2   N   0.277801542155307   0.055603084310549   0.625161781732976   1.0000000
N2   N   0.777730249022722   0.555531791178190   0.625161781732976   1.0000000
N2   N   0.611110041101435   0.055561900045343   0.625006501582319   1.0000000
N2   N   0.944451858943984   0.055561900045343   0.625006501582319   1.0000000
N2   N   0.054130055847049   0.110210147786717   0.375000000000000   1.0000000
N2   N   0.556040442239728   0.612080884479453   0.375000000000000   1.0000000
N2   N   0.387092772548324   0.101682352420087   0.375000000000000   1.0000000
N2   N   0.892227281434955   0.612780307384169   0.375000000000000   1.0000000
N2   N   0.722491654286098   0.110841679047194   0.375000000000000   1.0000000
N2   N   0.055557928068343   0.777775405265066   0.875000000000000   1.0000000
N2   N   0.388880798165029   0.777780748194483   0.875000000000000   1.0000000
N2   N   0.222214807799687   0.277774070566500   0.875000000000000   1.0000000
N2   N   0.722228280821192   0.777776820541269   0.875000000000000   1.0000000
N2   N   0.555559262766849   0.277774070566500   0.875000000000000   1.0000000
N2   N   0.888892954498455   0.277785908996849   0.875000000000000   1.0000000
N2   N   0.221596774057085   0.777465053695238   0.375000000000000   1.0000000
N2   N   0.054130055847050   0.277253241393694   0.375000000000000   1.0000000
N2   N   0.372708488360537   0.245416976721098   0.375000000000000   1.0000000
N2   N   0.556080091939606   0.779203277486325   0.375000000000000   1.0000000
N2   N   0.891492198857346   0.779889413669350   0.375000000000000   1.0000000
N2   N   0.723123185546606   0.277253241393694   0.375000000000000   1.0000000
N2   N   0.055552585138870   0.944433383303921   0.875000000000000   1.0000000
N2   N   0.388880798165029   0.944433383303921   0.875000000000000   1.0000000
N2   N   0.222207529272635   0.444459194963552   0.875000000000000   1.0000000
N2   N   0.555616507221935   0.444474920277632   0.875000000000000   1.0000000
N2   N   0.722220449371661   0.944440898743363   0.875000000000000   1.0000000
N2   N   0.888899950029408   0.444452535168300   0.875000000000000   1.0000000
N2   N   0.053443919663972   0.444936118521268   0.375000000000000   1.0000000
N2   N   0.220553025949179   0.941106051898373   0.375000000000000   1.0000000
N2   N   0.556020369595281   0.944676851464323   0.375000000000000   1.0000000
N2   N   0.372708488360537   0.460624844972792   0.375000000000000   1.0000000
N2   N   0.888656481869005   0.944676851464323   0.375000000000000   1.0000000
N2   N   0.731650980913187   0.446240560785004   0.375000000000000   1.0000000
N2   N   0.222212147522853   0.611121185810456   0.875000000000000   1.0000000
N2   N   0.055556512792051   0.111105052512059   0.875000000000000   1.0000000
N2   N   0.555559262766849   0.611118525533671   0.875000000000000   1.0000000
N2   N   0.388874138369777   0.111081667642392   0.875000000000000   1.0000000
N2   N   0.888909038287551   0.611121185810456   0.875000000000000   1.0000000
N2   N   0.055868279638122   0.611736559276278   0.375000000000000   1.0000000
N2   N   0.722220449371661   0.111112883961662   0.875000000000000   1.0000000
N2   N   0.214589579871764   0.101682352420087   0.375000000000000   1.0000000
N2   N   0.387092772548324   0.618743753461569   0.375000000000000   1.0000000
N2   N   0.731650980913187   0.618743753461569   0.375000000000000   1.0000000
N2   N   0.556080091939606   0.110210147786717   0.375000000000000   1.0000000
N2   N   0.388874138369777   0.611125804060713   0.875000000000000   1.0000000
N2   N   0.888350024761004   0.110841679047194   0.375000000000000   1.0000000
N2   N   0.222217477196641   0.777775405265066   0.875000000000000   1.0000000
N2   N   0.055556512792051   0.277784793613323   0.875000000000000   1.0000000
N2   N   0.388858413055697   0.277716826111446   0.875000000000000   1.0000000
N2   N   0.555548539720037   0.777776820541269   0.875000000000000   1.0000000
N2   N   0.888899950029408   0.777780748194483   0.875000000000000   1.0000000
N2   N   0.722228280821192   0.277784793613323   0.875000000000000   1.0000000
N2   N   0.055868279638122   0.777465053695238   0.375000000000000   1.0000000
N2   N   0.388397214812061   0.779889413669350   0.375000000000000   1.0000000
N2   N   0.221252448853872   0.277292891093609   0.375000000000000   1.0000000
N2   N   0.723123185546606   0.779203277486325   0.375000000000000   1.0000000
N2   N   0.556040442239728   0.277292891093609   0.375000000000000   1.0000000
N2   N   0.888656481869005   0.277312963738044   0.375000000000000   1.0000000
N2   N   0.055552585138870   0.444452535168300   0.875000000000000   1.0000000
N2   N   0.222212147522853   0.944424295045778   0.875000000000000   1.0000000
N2   N   0.555547424336537   0.944440378834874   0.875000000000000   1.0000000
N2   N   0.388858413055697   0.444474920277632   0.875000000000000   1.0000000
N2   N   0.888892954498455   0.944440378834874   0.875000000000000   1.0000000
N2   N   0.053443919663972   0.941841134475983   0.375000000000000   1.0000000
N2   N   0.722251665690991   0.444459194963552   0.875000000000000   1.0000000
N2   N   0.388397214812061   0.941841134475983   0.375000000000000   1.0000000
N2   N   0.214589579871764   0.446240560785004   0.375000000000000   1.0000000
N2   N   0.220553025949176   0.612780307384169   0.375000000000000   1.0000000
N2   N   0.587916356612255   0.460624844972792   0.375000000000000   1.0000000
N2   N   0.722491654286098   0.944983308572324   0.375000000000000   1.0000000
N2   N   0.891492198857346   0.444936118521268   0.375000000000000   1.0000000
N2   N   0.055557928068343   0.611115856136708   0.875000000000000   1.0000000
N2   N   0.222207529272635   0.111081667642392   0.875000000000000   1.0000000
N2   N   0.722251665690991   0.611125804060713   0.875000000000000   1.0000000
N2   N   0.555548539720037   0.111105052512059   0.875000000000000   1.0000000
N2   N   0.888892434589966   0.111112883961662   0.875000000000000   1.0000000
B2   B   0.106062297558066   0.050936620576522   0.375000000000000   1.0000000
B2   B   0.623150498408804   0.565844696907524   0.375000000000000   1.0000000
B2   B   0.444874323018471   0.050936620576522   0.375000000000000   1.0000000
B2   B   0.945915757899563   0.555968699724177   0.375000000000000   1.0000000
B2   B   0.777777777777779   0.055555555555557   0.375000000000000   1.0000000
B2   B   0.111111111111114   0.722222222222221   0.875000000000000   1.0000000
B2   B   0.444433993165233   0.722215366680785   0.875000000000000   1.0000000
B2   B   0.277802548594568   0.222225975490631   0.875000000000000   1.0000000
B2   B   0.777781373515568   0.722215366680785   0.875000000000000   1.0000000
B2   B   0.611100940248164   0.222232393085202   0.875000000000000   1.0000000
B2   B   0.944452956724892   0.222229956614413   0.875000000000000   1.0000000
B2   B   0.277364633609255   0.723280391508855   0.375000000000000   1.0000000
B2   B   0.109631797269362   0.221482565301355   0.375000000000000   1.0000000
B2   B   0.442694198498730   0.210182834924530   0.375000000000000   1.0000000
B2   B   0.611850768031989   0.723701536063987   0.375000000000000   1.0000000
B2   B   0.945915757899559   0.723280391508855   0.375000000000000   1.0000000
B2   B   0.777946338468222   0.221507391635821   0.375000000000000   1.0000000
B2   B   0.111110661574282   0.888884187533371   0.875000000000000   1.0000000
B2   B   0.444437626356332   0.888885479844817   0.875000000000000   1.0000000
B2   B   0.277802548594568   0.388909906437305   0.875000000000000   1.0000000
B2   B   0.611107357842640   0.388909906437305   0.875000000000000   1.0000000
B2   B   0.777776999889533   0.888880376608437   0.875000000000000   1.0000000
B2   B   0.944447853488512   0.388895706976997   0.875000000000000   1.0000000
B2   B   0.106062297558066   0.388459010314858   0.375000000000000   1.0000000
B2   B   0.277364633609255   0.887417575433766   0.375000000000000   1.0000000
B2   B   0.611825941697461   0.889772280165761   0.375000000000000   1.0000000
B2   B   0.944155568475735   0.889177764857594   0.375000000000000   1.0000000
B2   B   0.782396712756841   0.388459010314858   0.375000000000000   1.0000000
B2   B   0.277773365634989   0.555559967698292   0.875000000000000   1.0000000
B2   B   0.111117966652530   0.055551959817778   0.875000000000000   1.0000000
B2   B   0.611107357842640   0.555530784738847   0.875000000000000   1.0000000
B2   B   0.444433993165233   0.055551959817778   0.875000000000000   1.0000000
B2   B   0.944449145799957   0.555559807374231   0.875000000000000   1.0000000
B2   B   0.110052941824503   0.555968699724177   0.375000000000000   1.0000000
B2   B   0.777777777777779   0.055555555555557   0.875000000000000   1.0000000
B2   B   0.275236890786748   0.050473781573406   0.375000000000000   1.0000000
B2   B   0.442694198498730   0.565844696907524   0.375000000000000   1.0000000
B2   B   0.782859551759839   0.558096442546646   0.375000000000000   1.0000000
B2   B   0.611825941697461   0.055386994865155   0.375000000000000   1.0000000
B2   B   0.444423426896023   0.555530784738847   0.875000000000000   1.0000000
B2   B   0.943561053167568   0.055386994865155   0.375000000000000   1.0000000
B2   B   0.277773525959144   0.722222671759061   0.875000000000000   1.0000000
B2   B   0.111131452837072   0.222232393085202   0.875000000000000   1.0000000
B2   B   0.444423426896023   0.222225975490631   0.875000000000000   1.0000000
B2   B   0.611100940248164   0.722201880496278   0.875000000000000   1.0000000
B2   B   0.944449145799957   0.722222671759061   0.875000000000000   1.0000000
B2   B   0.777776999889533   0.222229956614419   0.875000000000000   1.0000000
B2   B   0.111111111111114   0.722222222222221   0.375000000000000   1.0000000
B2   B   0.444874323018471   0.727271035775292   0.375000000000000   1.0000000
B2   B   0.267488636425816   0.210182834924530   0.375000000000000   1.0000000
B2   B   0.782396712756841   0.727271035775292   0.375000000000000   1.0000000
B2   B   0.611850768031989   0.221482565301355   0.375000000000000   1.0000000
B2   B   0.943561053167568   0.221507391635821   0.375000000000000   1.0000000
B2   B   0.111117966652530   0.388899340168095   0.875000000000000   1.0000000
B2   B   0.277773525959144   0.888884187533371   0.875000000000000   1.0000000
B2   B   0.611103376718958   0.888880376608437   0.875000000000000   1.0000000
B2   B   0.444444444444443   0.388888888888886   0.875000000000000   1.0000000
B2   B   0.944447853488512   0.888885479844817   0.875000000000000   1.0000000
B2   B   0.110052941824503   0.887417575433770   0.375000000000000   1.0000000
B2   B   0.777781373515568   0.388899340168095   0.875000000000000   1.0000000
B2   B   0.445022196381880   0.889177764857594   0.375000000000000   1.0000000
B2   B   0.267488636425816   0.390639134834599   0.375000000000000   1.0000000
B2   B   0.275236890786748   0.558096442546646   0.375000000000000   1.0000000
B2   B   0.623150498408804   0.390639134834599   0.375000000000000   1.0000000
B2   B   0.777946338468222   0.889772280165761   0.375000000000000   1.0000000
B2   B   0.944155568475735   0.388311136951449   0.375000000000000   1.0000000
B2   B   0.111110661574282   0.555559807374231   0.875000000000000   1.0000000
B2   B   0.277773365634989   0.055546731269970   0.875000000000000   1.0000000
B2   B   0.777786602063359   0.555559967698292   0.875000000000000   1.0000000
B2   B   0.611103376718958   0.055556333443823   0.875000000000000   1.0000000
B2   B   0.944452956724892   0.055556333443823   0.875000000000000   1.0000000
B2   B   0.055582614675981   0.111142229761803   0.124811664942103   1.0000000
B2   B   0.555510423177107   0.611020846354174   0.121965877963638   1.0000000
B2   B   0.388925271228452   0.111240740076967   0.123908571025166   1.0000000
B2   B   0.888832038750719   0.611082686042096   0.125711643060753   1.0000000
B2   B   0.722220213326216   0.111113120007077   0.124794983496958   1.0000000
B2   B   0.055547037282189   0.777786296051115   0.623942925841031   1.0000000
B2   B   0.388914692431462   0.777760739904793   0.624281835100791   1.0000000
B2   B   0.222312486979084   0.277822910156248   0.628034122036403   1.0000000
B2   B   0.722191103571479   0.777750718657347   0.625188335057858   1.0000000
B2   B   0.555510423177107   0.277822910156248   0.628034122036403   1.0000000
B2   B   0.888882604198780   0.277765208397459   0.624781150203773   1.0000000
B2   B   0.222239258768945   0.777786296051115   0.126057074158979   1.0000000
B2   B   0.055582614675981   0.277773718247488   0.124811664942103   1.0000000
B2   B   0.389036930627649   0.278073861255342   0.117439947794847   1.0000000
B2   B   0.555559615085825   0.777750718657347   0.124811664942103   1.0000000
B2   B   0.888846047473365   0.777760739904793   0.125718164899179   1.0000000
B2   B   0.722191103571479   0.277773718247488   0.124811664942103   1.0000000
B2   B   0.055572593428507   0.944487285859964   0.624281835100791   1.0000000
B2   B   0.388914692431464   0.944487285859964   0.624281835100791   1.0000000
B2   B   0.222315468848501   0.444408062104876   0.626091428974781   1.0000000
B2   B   0.555259472078030   0.444296402705679   0.632560052205132   1.0000000
B2   B   0.722220213326216   0.944440426652416   0.625205016503005   1.0000000
B2   B   0.888846047473365   0.444418640901866   0.624281835100791   1.0000000
B2   B   0.055572593428507   0.444418640901866   0.125718164899179   1.0000000
B2   B   0.222250647291299   0.944501294582609   0.125711643060753   1.0000000
B2   B   0.555568124935959   0.944450729134549   0.125218849796297   1.0000000
B2   B   0.389036930627649   0.444296402705679   0.117439947794847   1.0000000
B2   B   0.888882604198780   0.944450729134549   0.125218849796297   1.0000000
B2   B   0.722092593256319   0.444408062104876   0.123908571025166   1.0000000
B2   B   0.222250647291299   0.611082686042096   0.624288356939202   1.0000000
B2   B   0.055582614675981   0.111142229761803   0.625188335057858   1.0000000
B2   B   0.555510423177107   0.611020846354174   0.628034122036403   1.0000000
B2   B   0.388925271228452   0.111240740076967   0.626091428974781   1.0000000
B2   B   0.888832038750719   0.611082686042096   0.624288356939202   1.0000000
B2   B   0.055547037282189   0.611094074564309   0.126057074158979   1.0000000
B2   B   0.722220213326216   0.111113120007077   0.625205016503005   1.0000000
B2   B   0.222315468848501   0.111240740076967   0.123908571025166   1.0000000
B2   B   0.388925271228452   0.611017864484812   0.123908571025166   1.0000000
B2   B   0.722092593256319   0.611017864484812   0.123908571025166   1.0000000
B2   B   0.555559615085825   0.111142229761803   0.124811664942103   1.0000000
B2   B   0.388925271228452   0.611017864484812   0.626091428974781   1.0000000
B2   B   0.888892906680912   0.111113120007077   0.124794983496958   1.0000000
B2   B   0.222239258768948   0.777786296051115   0.623942925841031   1.0000000
B2   B   0.055582614675981   0.277773718247489   0.625188335057858   1.0000000
B2   B   0.389036930627649   0.278073861255342   0.632560052205132   1.0000000
B2   B   0.555559615085825   0.777750718657347   0.625188335057858   1.0000000
B2   B   0.888846047473365   0.777760739904793   0.624281835100791   1.0000000
B2   B   0.722191103571479   0.277773718247488   0.625188335057858   1.0000000
B2   B   0.055547037282189   0.777786296051115   0.126057074158979   1.0000000
B2   B   0.388914692431462   0.777760739904793   0.125718164899179   1.0000000
B2   B   0.222312486979084   0.277822910156248   0.121965877963638   1.0000000
B2   B   0.722191103571479   0.777750718657347   0.124811664942103   1.0000000
B2   B   0.555510423177107   0.277822910156248   0.121965877963638   1.0000000
B2   B   0.888882604198780   0.277765208397459   0.125218849796297   1.0000000
B2   B   0.055572593428507   0.444418640901866   0.624281835100791   1.0000000
B2   B   0.222250647291299   0.944501294582609   0.624288356939202   1.0000000
B2   B   0.555568124935959   0.944450729134549   0.624781150203773   1.0000000
B2   B   0.389036930627649   0.444296402705679   0.632560052205132   1.0000000
B2   B   0.888882604198780   0.944450729134549   0.624781150203773   1.0000000
B2   B   0.055572593428507   0.944487285859964   0.125718164899179   1.0000000
B2   B   0.722092593256319   0.444408062104876   0.626091428974781   1.0000000
B2   B   0.388914692431464   0.944487285859964   0.125718164899179   1.0000000
B2   B   0.222315468848501   0.444408062104876   0.123908571025166   1.0000000
B2   B   0.222250647291299   0.611082686042096   0.125711643060753   1.0000000
B2   B   0.555259472078030   0.444296402705679   0.117439947794847   1.0000000
B2   B   0.722220213326216   0.944440426652416   0.124794983496958   1.0000000
B2   B   0.888846047473365   0.444418640901866   0.125718164899179   1.0000000
B2   B   0.055547037282189   0.611094074564309   0.623942925841031   1.0000000
B2   B   0.222315468848501   0.111240740076967   0.626091428974781   1.0000000
B2   B   0.722092593256319   0.611017864484812   0.626091428974781   1.0000000
B2   B   0.555559615085825   0.111142229761803   0.625188335057858   1.0000000
B2   B   0.888892906680912   0.111113120007077   0.625205016503005   1.0000000


