data_1
_audit_creation_method   'vasp2cif'
_cell_length_a    14.93631414619966
_cell_length_b    14.936314146199727
_cell_length_c    13.341276283792837
_cell_angle_alpha    90.0
_cell_angle_beta    90.0
_cell_angle_gamma    119.99999999999984

_symmetry_space_group_name_H-M    'P 1'
loop_
_atom_site_label
_atom_site_type_symbol
_atom_site_fract_x
_atom_site_fract_y
_atom_site_fract_z
_atom_site_occupancy
P2   P   0.482796414443431   0.408064873888380   0.375000000000000   1.0000000
N2   N   0.111109002895294   0.055536087673780   0.125153126663668   1.0000000
N2   N   0.611085421818886   0.555552746911097   0.125293968219400   1.0000000
N2   N   0.444433390973388   0.055534068453716   0.125168450121366   1.0000000
N2   N   0.944435597248385   0.555559744876260   0.125163184838807   1.0000000
N2   N   0.777784335862336   0.055558834597835   0.125102637169662   1.0000000
N2   N   0.111103774578313   0.722218553955821   0.624890741631980   1.0000000
N2   N   0.444433390973388   0.722232655853009   0.624831549878633   1.0000000
N2   N   0.277770547006346   0.222204915521761   0.624804620812340   1.0000000
N2   N   0.777763817275101   0.722202927871814   0.624741904257101   1.0000000
N2   N   0.611095223278073   0.222205225897785   0.624807884027289   1.0000000
N2   N   0.944455511935581   0.222236610434059   0.624870306383669   1.0000000
N2   N   0.277769516125125   0.722226824561494   0.125123544521230   1.0000000
N2   N   0.111124216807255   0.222228775070292   0.125173282370669   1.0000000
N2   N   0.444430236880223   0.222197319632349   0.125291223937475   1.0000000
N2   N   0.611095223278073   0.722223330713617   0.125192115972711   1.0000000
N2   N   0.944435597248385   0.722209185705461   0.125163184838807   1.0000000
N2   N   0.777777479493181   0.222230500798946   0.125134397348118   1.0000000
N2   N   0.111102607307152   0.888869051227713   0.624881576153875   1.0000000
N2   N   0.444437377551640   0.888885355442484   0.624881094590750   1.0000000
N2   N   0.277770547006346   0.388898964817914   0.624804620812340   1.0000000
N2   N   0.611085421818886   0.388866008241117   0.624706031780600   1.0000000
N2   N   0.777777479493181   0.888880312027564   0.624865602651882   1.0000000
N2   N   0.944443156838708   0.388905461154331   0.624861994799658   1.0000000
N2   N   0.111109002895294   0.388906248554843   0.125153126663668   1.0000000
N2   N   0.277769516125125   0.888876024896960   0.125123544521230   1.0000000
N2   N   0.611106698592849   0.888891911665891   0.125108804674471   1.0000000
N2   N   0.444400064104418   0.388866698718873   0.125342579357825   1.0000000
N2   N   0.944443156838708   0.888871029017705   0.125138005200342   1.0000000
N2   N   0.777763817275101   0.388894222736615   0.125258095742899   1.0000000
N2   N   0.277766693887550   0.555569343843791   0.624825209630947   1.0000000
N2   N   0.111109002895294   0.055536087673780   0.624846873336332   1.0000000
N2   N   0.611085421818886   0.555552746911097   0.624706031780600   1.0000000
N2   N   0.444433390973388   0.055534068453716   0.624831549878633   1.0000000
N2   N   0.944435597248385   0.555559744876260   0.624836815161194   1.0000000
N2   N   0.111102607307152   0.555566889412767   0.125118423846126   1.0000000
N2   N   0.777784335862336   0.055558834597835   0.624897362830338   1.0000000
N2   N   0.277766693887550   0.055530683377096   0.125174790369053   1.0000000
N2   N   0.444430236880223   0.555566250581209   0.125291223937475   1.0000000
N2   N   0.777753063887887   0.555543198610612   0.125346325507563   1.0000000
N2   N   0.611106698592849   0.055548120260286   0.125108804674471   1.0000000
N2   N   0.444430236880223   0.555566250581209   0.624708776062526   1.0000000
N2   N   0.944455511935581   0.055552234834858   0.125129693616332   1.0000000
N2   N   0.277769516125125   0.722226824561494   0.624876455478771   1.0000000
N2   N   0.111124216807255   0.222228775070292   0.624826717629332   1.0000000
N2   N   0.444430236880223   0.222197319632349   0.624708776062526   1.0000000
N2   N   0.611095223278073   0.722223330713617   0.624807884027289   1.0000000
N2   N   0.944435597248385   0.722209185705461   0.624836815161194   1.0000000
N2   N   0.777777479493181   0.222230500798946   0.624865602651882   1.0000000
N2   N   0.111103774578313   0.722218553955821   0.125109258368021   1.0000000
N2   N   0.444433390973388   0.722232655853009   0.125168450121366   1.0000000
N2   N   0.277770547006346   0.222204915521761   0.125195379187659   1.0000000
N2   N   0.777763817275101   0.722202927871814   0.125258095742899   1.0000000
N2   N   0.611095223278073   0.222205225897785   0.125192115972711   1.0000000
N2   N   0.944455511935581   0.222236610434059   0.125129693616332   1.0000000
N2   N   0.111109002895294   0.388906248554843   0.624846873336332   1.0000000
N2   N   0.277769516125125   0.888876024896960   0.624876455478771   1.0000000
N2   N   0.611106698592849   0.888891911665891   0.624891195325528   1.0000000
N2   N   0.444400064104418   0.388866698718873   0.624657420642175   1.0000000
N2   N   0.944443156838708   0.888871029017705   0.624861994799658   1.0000000
N2   N   0.111102607307152   0.888869051227713   0.125118423846126   1.0000000
N2   N   0.777763817275101   0.388894222736615   0.624741904257101   1.0000000
N2   N   0.444437377551640   0.888885355442484   0.125118905409250   1.0000000
N2   N   0.277770547006346   0.388898964817914   0.125195379187659   1.0000000
N2   N   0.277766693887550   0.555569343843791   0.125174790369053   1.0000000
N2   N   0.611085421818886   0.388866008241117   0.125293968219400   1.0000000
N2   N   0.777777479493181   0.888880312027564   0.125134397348118   1.0000000
N2   N   0.944443156838708   0.388905461154331   0.125138005200342   1.0000000
N2   N   0.111102607307152   0.555566889412767   0.624881576153875   1.0000000
N2   N   0.277766693887550   0.055530683377096   0.624825209630947   1.0000000
N2   N   0.777753063887887   0.555543198610612   0.624653674492438   1.0000000
N2   N   0.611106698592849   0.055548120260286   0.624891195325528   1.0000000
N2   N   0.944455511935581   0.055552234834858   0.624870306383669   1.0000000
N2   N   0.057538466878822   0.112410749150517   0.375000000000000   1.0000000
N2   N   0.554202045257750   0.616629437853210   0.375000000000000   1.0000000
N2   N   0.387563220120459   0.107783024733641   0.375000000000000   1.0000000
N2   N   0.884060933657398   0.608697133495370   0.375000000000000   1.0000000
N2   N   0.722702605918888   0.110776062307629   0.375000000000000   1.0000000
N2   N   0.055553990393650   0.777779671626489   0.875000000000000   1.0000000
N2   N   0.388897951246441   0.777780626486387   0.875000000000000   1.0000000
N2   N   0.222224780430656   0.277779056881996   0.875000000000000   1.0000000
N2   N   0.722224978948381   0.777780364597349   0.875000000000000   1.0000000
N2   N   0.555558415302472   0.277781380913983   0.875000000000000   1.0000000
N2   N   0.888892828272630   0.277777478058537   0.875000000000000   1.0000000
N2   N   0.219766886361271   0.776550109847303   0.375000000000000   1.0000000
N2   N   0.057538466878822   0.278461051061641   0.375000000000000   1.0000000
N2   N   0.395429433239755   0.279240266070213   0.375000000000000   1.0000000
N2   N   0.554867871561847   0.780068579774043   0.375000000000000   1.0000000
N2   N   0.886368316180681   0.776629473354899   0.375000000000000   1.0000000
N2   N   0.721911481335496   0.276174791713598   0.375000000000000   1.0000000
N2   N   0.055556465115002   0.944449042504821   0.875000000000000   1.0000000
N2   N   0.388897951246441   0.944450658093390   0.875000000000000   1.0000000
N2   N   0.222224235747927   0.444441070379632   0.875000000000000   1.0000000
N2   N   0.555556183610425   0.444444758471877   0.875000000000000   1.0000000
N2   N   0.722225696524156   0.944447293641904   0.875000000000000   1.0000000
N2   N   0.888890065656943   0.444441339847866   0.875000000000000   1.0000000
N2   N   0.055315624695234   0.443993166727794   0.375000000000000   1.0000000
N2   N   0.220402754467999   0.943079921205989   0.375000000000000   1.0000000
N2   N   0.554933642782278   0.944133488057804   0.375000000000000   1.0000000
N2   N   0.395429433239755   0.449522500502878   0.375000000000000   1.0000000
N2   N   0.889548608330602   0.945301482854737   0.375000000000000   1.0000000
N2   N   0.716077440395894   0.441430182499047   0.375000000000000   1.0000000
N2   N   0.222225486576317   0.611108180755724   0.875000000000000   1.0000000
N2   N   0.055557049151645   0.111113359346326   0.875000000000000   1.0000000
N2   N   0.555558415302472   0.611110367721824   0.875000000000000   1.0000000
N2   N   0.388896168474845   0.111119553547645   0.875000000000000   1.0000000
N2   N   0.888886126221895   0.611109729777619   0.875000000000000   1.0000000
N2   N   0.052581124518176   0.609722578731191   0.375000000000000   1.0000000
N2   N   0.722225696524156   0.111111736215588   0.875000000000000   1.0000000
N2   N   0.224582357534695   0.112838507379300   0.375000000000000   1.0000000
N2   N   0.387563220120459   0.613113528720161   0.375000000000000   1.0000000
N2   N   0.716077440395894   0.607980591230182   0.375000000000000   1.0000000
N2   N   0.554867871561847   0.108132625121139   0.375000000000000   1.0000000
N2   N   0.388896168474845   0.611109948260543   0.875000000000000   1.0000000
N2   N   0.890233227082112   0.111783280207728   0.375000000000000   1.0000000
N2   N   0.222226023746745   0.777779678540040   0.875000000000000   1.0000000
N2   N   0.055557049151645   0.277777023138656   0.875000000000000   1.0000000
N2   N   0.388894082510384   0.277782714571194   0.875000000000000   1.0000000
N2   N   0.555561473571891   0.777780544980789   0.875000000000000   1.0000000
N2   N   0.888890065656943   0.777782059142413   0.875000000000000   1.0000000
N2   N   0.722224978948381   0.277777947684368   0.875000000000000   1.0000000
N2   N   0.052581124518176   0.776191879120321   0.375000000000000   1.0000000
N2   N   0.387236437409052   0.777834617319621   0.375000000000000   1.0000000
N2   N   0.226191967694996   0.279762650514166   0.375000000000000   1.0000000
N2   N   0.721911481335496   0.779070022955235   0.375000000000000   1.0000000
N2   N   0.554202045257750   0.270905940737875   0.375000000000000   1.0000000
N2   N   0.889548608330602   0.277580458809201   0.375000000000000   1.0000000
N2   N   0.055556465115002   0.444440755943511   0.875000000000000   1.0000000
N2   N   0.222225486576317   0.944450639153928   0.875000000000000   1.0000000
N2   N   0.555561014691782   0.944447174012555   0.875000000000000   1.0000000
N2   N   0.388894082510384   0.444444701272526   0.875000000000000   1.0000000
N2   N   0.888892828272630   0.944448683547430   0.875000000000000   1.0000000
N2   N   0.055315624695234   0.944655791300770   0.375000000000000   1.0000000
N2   N   0.722221064919731   0.444443361155778   0.875000000000000   1.0000000
N2   N   0.387236437409052   0.942735153422767   0.375000000000000   1.0000000
N2   N   0.224582357534695   0.445077183488731   0.375000000000000   1.0000000
N2   N   0.220402754467999   0.610656166595346   0.375000000000000   1.0000000
N2   N   0.722702605918888   0.945259876944594   0.375000000000000   1.0000000
N2   N   0.886368316180681   0.443072176159117   0.375000000000000   1.0000000
N2   N   0.055553990393650   0.611107652100497   0.875000000000000   1.0000000
N2   N   0.222224235747927   0.111116498701630   0.875000000000000   1.0000000
N2   N   0.722221064919731   0.611111037097289   0.875000000000000   1.0000000
N2   N   0.555561473571891   0.111114261924437   0.875000000000000   1.0000000
N2   N   0.888893215328202   0.111113274330772   0.875000000000000   1.0000000
B2   B   0.112385789194571   0.056400566194265   0.375000000000000   1.0000000
B2   B   0.607190420675373   0.562502021852601   0.375000000000000   1.0000000
B2   B   0.443628351457414   0.052805306277047   0.375000000000000   1.0000000
B2   B   0.941367276732766   0.554134861524183   0.375000000000000   1.0000000
B2   B   0.778982703494446   0.056158018413891   0.375000000000000   1.0000000
B2   B   0.111116569276004   0.722224951304666   0.875000000000000   1.0000000
B2   B   0.444449866850584   0.722246042044922   0.875000000000000   1.0000000
B2   B   0.277741723518685   0.222196030002364   0.875000000000000   1.0000000
B2   B   0.777807176600685   0.722261358249176   0.875000000000000   1.0000000
B2   B   0.611131019061547   0.222199631034555   0.875000000000000   1.0000000
B2   B   0.944438395422423   0.222213037874286   0.875000000000000   1.0000000
B2   B   0.275876987194603   0.721752739470870   0.375000000000000   1.0000000
B2   B   0.113600563543905   0.223466948438617   0.375000000000000   1.0000000
B2   B   0.443760669804159   0.216651698854278   0.375000000000000   1.0000000
B2   B   0.611707607534570   0.727463269766368   0.375000000000000   1.0000000
B2   B   0.941367276732766   0.720565748541919   0.375000000000000   1.0000000
B2   B   0.778668346834464   0.221503029301171   0.375000000000000   1.0000000
B2   B   0.111108458078661   0.888888399570985   0.875000000000000   1.0000000
B2   B   0.444452719050101   0.888893026191714   0.875000000000000   1.0000000
B2   B   0.277741723518685   0.388879026849650   0.875000000000000   1.0000000
B2   B   0.611132755035176   0.388879252212053   0.875000000000000   1.0000000
B2   B   0.777795960065090   0.888919989601562   0.875000000000000   1.0000000
B2   B   0.944453625582575   0.388878827253715   0.875000000000000   1.0000000
B2   B   0.112385789194571   0.389318556333635   0.375000000000000   1.0000000
B2   B   0.275876987194603   0.887457581057060   0.375000000000000   1.0000000
B2   B   0.611509883876374   0.890537965100341   0.375000000000000   1.0000000
B2   B   0.943873681443545   0.888813002935209   0.375000000000000   1.0000000
B2   B   0.775417942830758   0.386794938494653   0.375000000000000   1.0000000
B2   B   0.277761750816633   0.555560406526527   0.875000000000000   1.0000000
B2   B   0.111089275665142   0.055543093796857   0.875000000000000   1.0000000
B2   B   0.611132755035176   0.555586836156453   0.875000000000000   1.0000000
B2   B   0.444449866850584   0.055537158138998   0.875000000000000   1.0000000
B2   B   0.944463897286031   0.555556934906429   0.875000000000000   1.0000000
B2   B   0.109204922322195   0.554937070493988   0.375000000000000   1.0000000
B2   B   0.777789406837474   0.055561370085405   0.875000000000000   1.0000000
B2   B   0.276580777083803   0.053770904312707   0.375000000000000   1.0000000
B2   B   0.443760669804159   0.560442304283216   0.375000000000000   1.0000000
B2   B   0.773026218969477   0.553179776151406   0.375000000000000   1.0000000
B2   B   0.611509883876374   0.054305252109361   0.375000000000000   1.0000000
B2   B   0.444438359752204   0.555577302425547   0.875000000000000   1.0000000
B2   B   0.945981884140243   0.056598263680598   0.375000000000000   1.0000000
B2   B   0.277777420701945   0.722227860129918   0.875000000000000   1.0000000
B2   B   0.111078446432069   0.222205889882698   0.875000000000000   1.0000000
B2   B   0.444438359752204   0.222194390659992   0.875000000000000   1.0000000
B2   B   0.611131019061547   0.722264721360321   0.875000000000000   1.0000000
B2   B   0.944463897286031   0.722240295712938   0.875000000000000   1.0000000
B2   B   0.777795960065090   0.222209303796857   0.875000000000000   1.0000000
B2   B   0.108460983185284   0.720897158259306   0.375000000000000   1.0000000
B2   B   0.443628351457414   0.724156378513702   0.375000000000000   1.0000000
B2   B   0.281436209701956   0.224459932573529   0.375000000000000   1.0000000
B2   B   0.775417942830758   0.721956337669434   0.375000000000000   1.0000000
B2   B   0.611707607534570   0.217577671101531   0.375000000000000   1.0000000
B2   B   0.945981884140243   0.222716953792980   0.375000000000000   1.0000000
B2   B   0.111089275665142   0.388879515201614   0.875000000000000   1.0000000
B2   B   0.277777420701945   0.888882893905355   0.875000000000000   1.0000000
B2   B   0.611126624552761   0.888911911728646   0.875000000000000   1.0000000
B2   B   0.444426522846202   0.388879928089765   0.875000000000000   1.0000000
B2   B   0.944453625582575   0.888908131662190   0.875000000000000   1.0000000
B2   B   0.109204922322195   0.887601185161535   0.375000000000000   1.0000000
B2   B   0.777807176600685   0.388879151684837   0.875000000000000   1.0000000
B2   B   0.443558177848491   0.888445755590910   0.375000000000000   1.0000000
B2   B   0.281436209701955   0.390309610461756   0.375000000000000   1.0000000
B2   B   0.276580777083803   0.556143206104432   0.375000000000000   1.0000000
B2   B   0.607190420675373   0.378021732156099   0.375000000000000   1.0000000
B2   B   0.778668346834464   0.890498650866621   0.375000000000000   1.0000000
B2   B   0.943873681443546   0.388394011841665   0.375000000000000   1.0000000
B2   B   0.111108458078661   0.555553391841005   0.875000000000000   1.0000000
B2   B   0.277761750816633   0.055534677623441   0.875000000000000   1.0000000
B2   B   0.777810491358142   0.555571912345739   0.875000000000000   1.0000000
B2   B   0.611126624552761   0.055548046157445   0.875000000000000   1.0000000
B2   B   0.944438395422423   0.055558690881473   0.875000000000000   1.0000000
B2   B   0.055524522787896   0.111072540717191   0.124921617165399   1.0000000
B2   B   0.555538924439078   0.611229906761470   0.124689302876590   1.0000000
B2   B   0.388805475911067   0.110937260818567   0.124859630711436   1.0000000
B2   B   0.889002330195356   0.611167831764348   0.124914869993168   1.0000000
B2   B   0.722230625013161   0.111088410097525   0.124894506755618   1.0000000
B2   B   0.055595024351292   0.777780385609532   0.625081519374943   1.0000000
B2   B   0.388841059613246   0.777806363445219   0.625089385375014   1.0000000
B2   B   0.222126145783279   0.277729739558307   0.625187226270229   1.0000000
B2   B   0.722266299820927   0.777862056043748   0.625148400054260   1.0000000
B2   B   0.555538924439078   0.277642351010943   0.625310697123410   1.0000000
B2   B   0.888915912368846   0.277788197509836   0.625085661433267   1.0000000
B2   B   0.222203984900539   0.777768659116937   0.124923745566229   1.0000000
B2   B   0.055524522787896   0.277785315404041   0.124921617165399   1.0000000
B2   B   0.388752587866804   0.277595634164245   0.124671801233861   1.0000000
B2   B   0.555530785960829   0.777857180068208   0.124859304984730   1.0000000
B2   B   0.888968376912542   0.777825036973801   0.124913584522608   1.0000000
B2   B   0.722266299820927   0.277737577110514   0.124851599945739   1.0000000
B2   B   0.055553812527555   0.944404811172958   0.625075144127495   1.0000000
B2   B   0.388841059613246   0.944368029501363   0.625089385375014   1.0000000
B2   B   0.222135548932902   0.444485325213286   0.625120671271238   1.0000000
B2   B   0.555595201589575   0.444464267461452   0.625391436395052   1.0000000
B2   B   0.722230625013161   0.944475548248971   0.625105493244382   1.0000000
B2   B   0.888968376912542   0.444476673272078   0.625086415477393   1.0000000
B2   B   0.055553812527555   0.444482334687925   0.124924855872505   1.0000000
B2   B   0.222179864117193   0.944355127015355   0.124917366370519   1.0000000
B2   B   0.555532316621350   0.944432824977339   0.124894280856792   1.0000000
B2   B   0.388752587866804   0.444490287035896   0.124671801233861   1.0000000
B2   B   0.888915912368846   0.944461048192346   0.124914338566733   1.0000000
B2   B   0.722333383198744   0.444464985395234   0.124797922389120   1.0000000
B2   B   0.222179864117193   0.611158070435174   0.625082633629481   1.0000000
B2   B   0.055524522787895   0.111072540717191   0.625078382834602   1.0000000
B2   B   0.555538924439078   0.611229906761470   0.625310697123410   1.0000000
B2   B   0.388805475911067   0.110937260818567   0.625140369288564   1.0000000
B2   B   0.889002330195356   0.611167831764348   0.625085130006832   1.0000000
B2   B   0.055595024351292   0.611147972075095   0.124918480625058   1.0000000
B2   B   0.722230625013161   0.111088410097525   0.625105493244382   1.0000000
B2   B   0.222135548932902   0.110983557052951   0.124879328728762   1.0000000
B2   B   0.388805475911067   0.611201548425843   0.124859630711436   1.0000000
B2   B   0.722333383198744   0.611201731136845   0.124797922389120   1.0000000
B2   B   0.555530785960829   0.111006939225957   0.124859304984730   1.0000000
B2   B   0.388805475911067   0.611201548425843   0.625140369288564   1.0000000
B2   B   0.888893790063333   0.111113561698338   0.124921334597888   1.0000000
B2   B   0.222203984900539   0.777768659116937   0.625076254433771   1.0000000
B2   B   0.055524522787895   0.277785315404041   0.625078382834602   1.0000000
B2   B   0.388752587866804   0.277595634164245   0.625328198766139   1.0000000
B2   B   0.555530785960829   0.777857180068208   0.625140695015270   1.0000000
B2   B   0.888968376912542   0.777825036973801   0.625086415477393   1.0000000
B2   B   0.722266299820927   0.277737577110514   0.625148400054260   1.0000000
B2   B   0.055595024351292   0.777780385609532   0.124918480625058   1.0000000
B2   B   0.388841059613246   0.777806363445219   0.124910614624986   1.0000000
B2   B   0.222126145783279   0.277729739558307   0.124812773729772   1.0000000
B2   B   0.722266299820927   0.777862056043748   0.124851599945739   1.0000000
B2   B   0.555538924439078   0.277642351010943   0.124689302876590   1.0000000
B2   B   0.888915912368846   0.277788197509836   0.124914338566733   1.0000000
B2   B   0.055553812527555   0.444482334687925   0.625075144127495   1.0000000
B2   B   0.222179864117193   0.944355127015355   0.625082633629481   1.0000000
B2   B   0.555532316621350   0.944432824977339   0.625105719143207   1.0000000
B2   B   0.388752587866804   0.444490287035896   0.625328198766139   1.0000000
B2   B   0.888915912368846   0.944461048192346   0.625085661433267   1.0000000
B2   B   0.055553812527555   0.944404811172958   0.124924855872505   1.0000000
B2   B   0.722333383198744   0.444464985395234   0.625202077610880   1.0000000
B2   B   0.388841059613246   0.944368029501363   0.124910614624986   1.0000000
B2   B   0.222135548932902   0.444485325213286   0.124879328728762   1.0000000
B2   B   0.222179864117193   0.611158070435174   0.124917366370519   1.0000000
B2   B   0.555595201589575   0.444464267461452   0.124608563604948   1.0000000
B2   B   0.722230625013161   0.944475548248971   0.124894506755618   1.0000000
B2   B   0.888968376912542   0.444476673272078   0.124913584522608   1.0000000
B2   B   0.055595024351292   0.611147972075095   0.625081519374943   1.0000000
B2   B   0.222135548932902   0.110983557052951   0.625120671271238   1.0000000
B2   B   0.722333383198744   0.611201731136845   0.625202077610880   1.0000000
B2   B   0.555530785960829   0.111006939225957   0.625140695015270   1.0000000
B2   B   0.888893790063333   0.111113561698338   0.625078665402112   1.0000000


