data_1
_audit_creation_method   'vasp2cif'
_cell_length_a    17.52789999999977
_cell_length_b    17.52789999999977
_cell_length_c    15.0
_cell_angle_alpha    90.0
_cell_angle_beta    90.0
_cell_angle_gamma    119.99999999999916

_symmetry_space_group_name_H-M    'P 1'
loop_
_atom_site_label
_atom_site_type_symbol
_atom_site_fract_x
_atom_site_fract_y
_atom_site_fract_z
_atom_site_occupancy
B2   B   0.902741176797121   0.950255234632556   0.110957885141212   1.0000000
B2   B   0.904650377598366   0.093857445751852   0.111039526496448   1.0000000
B2   B   0.905467548911262   0.236865820325942   0.111049560618573   1.0000000
B2   B   0.905539684751187   0.379778139486813   0.110972949658785   1.0000000
B2   B   0.905193247899966   0.522848342308052   0.110983256208690   1.0000000
B2   B   0.903726398037453   0.665727531491412   0.111001836945726   1.0000000
B2   B   0.902518028029805   0.807944572257316   0.110954578483783   1.0000000
B2   B   0.046894991934738   0.952659739411909   0.110938251152481   1.0000000
B2   B   0.048663807736301   0.096309754139922   0.110972317920902   1.0000000
B2   B   0.049166915431583   0.238617960062349   0.111017573160620   1.0000000
B2   B   0.048557891005247   0.380752591097881   0.110964396083909   1.0000000
B2   B   0.047349867116741   0.523512964150431   0.110965685608894   1.0000000
B2   B   0.046395064534528   0.666661994839100   0.110988565623160   1.0000000
B2   B   0.046347522155608   0.809633454124050   0.110926211608335   1.0000000
B2   B   0.189971048282464   0.953400104387917   0.110959704320081   1.0000000
B2   B   0.191672560848397   0.097506586029093   0.111021284300227   1.0000000
B2   B   0.194993462909405   0.242986614022657   0.111026382536077   1.0000000
B2   B   0.192935332125600   0.382975706704168   0.110985556524943   1.0000000
B2   B   0.189851232934302   0.524507969097287   0.110965301490587   1.0000000
B2   B   0.188366409498903   0.667282477082639   0.111047088708558   1.0000000
B2   B   0.189156232110866   0.810261168870813   0.111001298447503   1.0000000
B2   B   0.332666993121280   0.953150591557397   0.110977696751432   1.0000000
B2   B   0.333769983057849   0.096552469740594   0.111041777415405   1.0000000
B2   B   0.336336670975645   0.242119609454223   0.111138946591240   1.0000000
B2   B   0.343798483433055   0.392785498279812   0.111151422333639   1.0000000
B2   B   0.332962005100038   0.526832505986458   0.111071791469319   1.0000000
B2   B   0.329713850194639   0.668432866228536   0.111035894304967   1.0000000
B2   B   0.331699459851091   0.810521250768450   0.111038920082988   1.0000000
B2   B   0.475384706657220   0.951533881980898   0.110965862564732   1.0000000
B2   B   0.476280557236872   0.094340339144787   0.110966466400404   1.0000000
B2   B   0.477210872821441   0.237021001840055   0.111101200470617   1.0000000
B2   B   0.480701597800509   0.380835775554325   0.111154259180765   1.0000000
B2   B   0.486219803522943   0.573966308703244   0.111243852497724   1.0000000
B2   B   0.469617033697774   0.664935986480603   0.111185885574955   1.0000000
B2   B   0.474010164564259   0.808324576868920   0.111058326791181   1.0000000
B2   B   0.617850296578690   0.949702061486908   0.111026964804832   1.0000000
B2   B   0.619037976767328   0.093181871210477   0.110949192471515   1.0000000
B2   B   0.619763717447473   0.235940337387262   0.110948028576308   1.0000000
B2   B   0.620959581270550   0.378323602433856   0.111100878831103   1.0000000
B2   B   0.620945634583064   0.519097755129852   0.111143739017061   1.0000000
B2   B   0.608847244514534   0.654458619554649   0.111175380901644   1.0000000
B2   B   0.615550901011194   0.804787111801889   0.111109426583147   1.0000000
B2   B   0.759963392649315   0.949113440506279   0.111048202662173   1.0000000
B2   B   0.761680920513077   0.092967439122641   0.111053930664855   1.0000000
B2   B   0.762523890967770   0.236150590600576   0.110966804336920   1.0000000
B2   B   0.763041548712163   0.379089061269849   0.110969412918536   1.0000000
B2   B   0.763317546507313   0.521996383140528   0.111083695894770   1.0000000
B2   B   0.759416475176295   0.663396448640207   0.111080174197294   1.0000000
B2   B   0.756318390968872   0.803591430002882   0.111025949893724   1.0000000
N2   N   0.950996240401918   0.903542370223870   0.110911841911255   1.0000000
N2   N   0.952290317682117   0.046514396003105   0.110960328052324   1.0000000
N2   N   0.953287284940674   0.189570579022230   0.111044699162389   1.0000000
N2   N   0.953169259534964   0.332299934879239   0.110984145322822   1.0000000
N2   N   0.952469141217345   0.475156364260173   0.110948862273394   1.0000000
N2   N   0.951422443615682   0.618251341370724   0.110955904095039   1.0000000
N2   N   0.950861844483858   0.761086203135303   0.110926145848834   1.0000000
N2   N   0.094461997153403   0.905150621767139   0.110914527763939   1.0000000
N2   N   0.095893789577801   0.048567522050059   0.110952404148283   1.0000000
N2   N   0.098196798917277   0.192613338114549   0.110972176128353   1.0000000
N2   N   0.097050384302164   0.333938210452406   0.110958624487674   1.0000000
N2   N   0.094933395349363   0.476022500427426   0.110926637189665   1.0000000
N2   N   0.093611414579431   0.618937899763981   0.110993150331121   1.0000000
N2   N   0.093881793712784   0.762097504535700   0.110953220786406   1.0000000
N2   N   0.237306002317558   0.905636550871393   0.110954314845619   1.0000000
N2   N   0.238429155880051   0.049045768737110   0.110992022467759   1.0000000
N2   N   0.240895021344024   0.193712220401763   0.111055442171801   1.0000000
N2   N   0.245163295494599   0.339919957521723   0.111035938348727   1.0000000
N2   N   0.238154284470768   0.477645167831874   0.110955906708220   1.0000000
N2   N   0.235318175627946   0.619704785187019   0.110987570060508   1.0000000
N2   N   0.236441585446382   0.762618627977229   0.111045540458287   1.0000000
N2   N   0.380056354441110   0.905433615756675   0.110970027759027   1.0000000
N2   N   0.380960862568584   0.048330357365407   0.110966621530081   1.0000000
N2   N   0.382183589137931   0.192132994156528   0.111097044875330   1.0000000
N2   N   0.386281023485786   0.338839006968080   0.111159555439826   1.0000000
N2   N   0.392033384654299   0.491300024144124   0.111148656132958   1.0000000
N2   N   0.375949816121919   0.621070062611136   0.111055952745258   1.0000000
N2   N   0.378915447771349   0.763017101459819   0.111026214388964   1.0000000
N2   N   0.522580316599760   0.903380167220546   0.110981758069678   1.0000000
N2   N   0.523697582052715   0.046560448803355   0.110915804088108   1.0000000
N2   N   0.524502441120988   0.189268102823732   0.110984401686920   1.0000000
N2   N   0.526062568465411   0.331761933536385   0.111139261659845   1.0000000
N2   N   0.520659099804943   0.759222547670937   0.111115440780341   1.0000000
N2   N   0.664479962594240   0.900826519173901   0.111047281354265   1.0000000
N2   N   0.666256833425976   0.045178977813523   0.110989455350348   1.0000000
N2   N   0.667192037139143   0.188378941469864   0.110901648036530   1.0000000
N2   N   0.668004662104996   0.330961697116224   0.110977546596002   1.0000000
N2   N   0.668817048946115   0.473133742408453   0.111128449832839   1.0000000
N2   N   0.663350616005500   0.613305455506763   0.111135459672871   1.0000000
N2   N   0.658835012160354   0.752583697838252   0.111094239255322   1.0000000
N2   N   0.806244159556034   0.900329805422231   0.110979519519769   1.0000000
N2   N   0.808876103657582   0.045003874867911   0.111050446631933   1.0000000
N2   N   0.809943204518822   0.188506537692534   0.111023743818987   1.0000000
N2   N   0.810353331285397   0.331506876898520   0.110946000081971   1.0000000
N2   N   0.810410688774871   0.474398294106568   0.110989762272042   1.0000000
N2   N   0.808512933479595   0.617089564255375   0.111053356081383   1.0000000
N2   N   0.806444290284542   0.758569965260561   0.110993985778279   1.0000000
O2   O   0.530687870557862   0.471418414153287   0.111089822453957   1.0000000


