data_1
_audit_creation_method   'vasp2cif'
_cell_length_a    14.93631414619966
_cell_length_b    14.936314146199727
_cell_length_c    13.341276283792837
_cell_angle_alpha    90.0
_cell_angle_beta    90.0
_cell_angle_gamma    119.99999999999984

_symmetry_space_group_name_H-M    'P 1'
loop_
_atom_site_label
_atom_site_type_symbol
_atom_site_fract_x
_atom_site_fract_y
_atom_site_fract_z
_atom_site_occupancy
Ga2   Ga   0.492860758943315   0.413097046138323   0.375000000000000   1.0000000
N2   N   0.111088192884193   0.055554706105631   0.124799398690000   1.0000000
N2   N   0.611448368787503   0.556081243379999   0.125498921546031   1.0000000
N2   N   0.444535716278609   0.055587678643146   0.124649677635928   1.0000000
N2   N   0.944488444017294   0.555549870411692   0.124557321941435   1.0000000
N2   N   0.777892416028911   0.055612874681124   0.124888736559241   1.0000000
N2   N   0.111151961515071   0.722242647424200   0.625124795753088   1.0000000
N2   N   0.444535716278609   0.722281370968800   0.625350322364073   1.0000000
N2   N   0.277603696639689   0.222126801497948   0.625857061611745   1.0000000
N2   N   0.777924257342122   0.722460102583134   0.625973252667814   1.0000000
N2   N   0.611273701359236   0.222140238833364   0.625988247980635   1.0000000
N2   N   0.944481933397226   0.222209710474016   0.625035471212552   1.0000000
N2   N   0.277842227027357   0.722247970379713   0.124915740700034   1.0000000
N2   N   0.111018980088593   0.222176156710960   0.124707322932664   1.0000000
N2   N   0.444521659599814   0.222252836299092   0.124897602818046   1.0000000
N2   N   0.611273701359236   0.722466795859198   0.124011752019365   1.0000000
N2   N   0.944488444017294   0.722271906938941   0.124557321941435   1.0000000
N2   N   0.777908715077795   0.222169690493391   0.124642251618379   1.0000000
N2   N   0.111149934828517   0.888928493679677   0.625132625562405   1.0000000
N2   N   0.444535519721013   0.888934426527171   0.625147718003632   1.0000000
N2   N   0.277603696639689   0.388810228475070   0.625857061611745   1.0000000
N2   N   0.611448368787503   0.388700458740832   0.624501078453969   1.0000000
N2   N   0.777908715077795   0.889072357917735   0.625357748381620   1.0000000
N2   N   0.944509168748664   0.388862123068616   0.625190863946511   1.0000000
N2   N   0.111088192884193   0.388866820111890   0.124799398690000   1.0000000
N2   N   0.277842227027357   0.888927589980971   0.124915740700034   1.0000000
N2   N   0.611227428119341   0.888998312484432   0.124726927239664   1.0000000
N2   N   0.443931609792978   0.388632471563153   0.126175726103321   1.0000000
N2   N   0.944509168748664   0.888980379013374   0.124809136053489   1.0000000
N2   N   0.777924257342122   0.388797488092316   0.124026747332188   1.0000000
N2   N   0.277823683737200   0.555566683768093   0.625316258652873   1.0000000
N2   N   0.111088192884193   0.055554706105631   0.625200601309998   1.0000000
N2   N   0.611448368787503   0.556081243379999   0.624501078453969   1.0000000
N2   N   0.444535716278609   0.055587678643146   0.625350322364073   1.0000000
N2   N   0.944488444017294   0.555549870411692   0.625442678058564   1.0000000
N2   N   0.111149934828517   0.555554774482168   0.124867374437593   1.0000000
N2   N   0.777892416028911   0.055612874681124   0.625111263440758   1.0000000
N2   N   0.277823683737200   0.055590333302442   0.124683741347124   1.0000000
N2   N   0.444521659599814   0.555602156634059   0.124897602818046   1.0000000
N2   N   0.777865457980460   0.555599395656899   0.124508177237737   1.0000000
N2   N   0.611227428119341   0.055562448968237   0.124726927239664   1.0000000
N2   N   0.444521659599814   0.555602156634059   0.625102397181954   1.0000000
N2   N   0.944481933397226   0.055605556256546   0.124964528787446   1.0000000
N2   N   0.277842227027357   0.722247970379713   0.625084259299966   1.0000000
N2   N   0.111018980088593   0.222176156710960   0.625292677067338   1.0000000
N2   N   0.444521659599814   0.222252836299092   0.625102397181954   1.0000000
N2   N   0.611273701359236   0.722466795859198   0.625988247980635   1.0000000
N2   N   0.944488444017294   0.722271906938941   0.625442678058564   1.0000000
N2   N   0.777908715077795   0.222169690493391   0.625357748381620   1.0000000
N2   N   0.111151961515071   0.722242647424200   0.124875204246912   1.0000000
N2   N   0.444535716278609   0.722281370968800   0.124649677635928   1.0000000
N2   N   0.277603696639689   0.222126801497948   0.124142938388256   1.0000000
N2   N   0.777924257342122   0.722460102583134   0.124026747332188   1.0000000
N2   N   0.611273701359236   0.222140238833364   0.124011752019365   1.0000000
N2   N   0.944481933397226   0.222209710474016   0.124964528787446   1.0000000
N2   N   0.111088192884193   0.388866820111890   0.625200601309998   1.0000000
N2   N   0.277842227027357   0.888927589980971   0.625084259299966   1.0000000
N2   N   0.611227428119341   0.888998312484432   0.625273072760336   1.0000000
N2   N   0.443931609792978   0.388632471563153   0.623824273896680   1.0000000
N2   N   0.944509168748664   0.888980379013374   0.625190863946511   1.0000000
N2   N   0.111149934828517   0.888928493679677   0.124867374437593   1.0000000
N2   N   0.777924257342122   0.388797488092316   0.625973252667814   1.0000000
N2   N   0.444535519721013   0.888934426527171   0.124852281996369   1.0000000
N2   N   0.277603696639689   0.388810228475070   0.124142938388256   1.0000000
N2   N   0.277823683737200   0.555566683768093   0.124683741347124   1.0000000
N2   N   0.611448368787503   0.388700458740832   0.125498921546031   1.0000000
N2   N   0.777908715077795   0.889072357917735   0.124642251618379   1.0000000
N2   N   0.944509168748664   0.388862123068616   0.124809136053489   1.0000000
N2   N   0.111149934828517   0.555554774482168   0.625132625562405   1.0000000
N2   N   0.277823683737200   0.055590333302442   0.625316258652873   1.0000000
N2   N   0.777865457980460   0.555599395656899   0.625491822762265   1.0000000
N2   N   0.611227428119341   0.055562448968237   0.625273072760336   1.0000000
N2   N   0.944481933397226   0.055605556256546   0.625035471212552   1.0000000
N2   N   0.056820073065274   0.111828758782788   0.375000000000000   1.0000000
N2   N   0.554485312549235   0.617867368149620   0.375000000000000   1.0000000
N2   N   0.386733621179051   0.104651641545922   0.375000000000000   1.0000000
N2   N   0.886038179901613   0.609685756617478   0.375000000000000   1.0000000
N2   N   0.722673893955567   0.110646310276858   0.375000000000000   1.0000000
N2   N   0.055619189340111   0.777807596476146   0.875000000000000   1.0000000
N2   N   0.388902976502846   0.777802957482146   0.875000000000000   1.0000000
N2   N   0.222276210648666   0.277804771991000   0.875000000000000   1.0000000
N2   N   0.722243017414940   0.777769267080588   0.875000000000000   1.0000000
N2   N   0.555552583778598   0.277766921758524   0.875000000000000   1.0000000
N2   N   0.888918572816704   0.277802980239421   0.875000000000000   1.0000000
N2   N   0.219595687837202   0.776464510585269   0.375000000000000   1.0000000
N2   N   0.056820073065274   0.278324647615821   0.375000000000000   1.0000000
N2   N   0.388933231617541   0.269360268114510   0.375000000000000   1.0000000
N2   N   0.554748307178476   0.780725620237960   0.375000000000000   1.0000000
N2   N   0.887404611548312   0.777231427477313   0.375000000000000   1.0000000
N2   N   0.722317550724695   0.276124211763851   0.375000000000000   1.0000000
N2   N   0.055589671811099   0.944454492332999   0.875000000000000   1.0000000
N2   N   0.388902976502846   0.944433352354034   0.875000000000000   1.0000000
N2   N   0.222255151853078   0.444477764499390   0.875000000000000   1.0000000
N2   N   0.555582291095625   0.444457812214477   0.875000000000000   1.0000000
N2   N   0.722243648532342   0.944448519666091   0.875000000000000   1.0000000
N2   N   0.888940820963357   0.444482542793488   0.875000000000000   1.0000000
N2   N   0.054491683694090   0.444306699885724   0.375000000000000   1.0000000
N2   N   0.219779602451601   0.941805153847289   0.375000000000000   1.0000000
N2   N   0.554841804113271   0.944087568723299   0.375000000000000   1.0000000
N2   N   0.388933231617541   0.452906296836367   0.375000000000000   1.0000000
N2   N   0.889440269867178   0.945222383427225   0.375000000000000   1.0000000
N2   N   0.719861774436334   0.442422189044000   0.375000000000000   1.0000000
N2   N   0.222242007589070   0.611140458819457   0.875000000000000   1.0000000
N2   N   0.055594799926848   0.111127429050605   0.875000000000000   1.0000000
N2   N   0.555552583778598   0.611118995353408   0.875000000000000   1.0000000
N2   N   0.388893326931872   0.111075557586780   0.875000000000000   1.0000000
N2   N   0.888990218645610   0.611161775989479   0.875000000000000   1.0000000
N2   N   0.053024822223264   0.610151701428678   0.375000000000000   1.0000000
N2   N   0.722243648532342   0.111128462199587   0.875000000000000   1.0000000
N2   N   0.221550283676760   0.109203031324164   0.375000000000000   1.0000000
N2   N   0.386733621179051   0.615415312966473   0.375000000000000   1.0000000
N2   N   0.719861774436334   0.610772918725667   0.375000000000000   1.0000000
N2   N   0.554748307178476   0.107356020273853   0.375000000000000   1.0000000
N2   N   0.388893326931872   0.611151102678435   0.875000000000000   1.0000000
N2   N   0.889978786148870   0.111656059741107   0.375000000000000   1.0000000
N2   N   0.222255471116449   0.777794402224894   0.875000000000000   1.0000000
N2   N   0.055594799926848   0.277800704209577   0.875000000000000   1.0000000
N2   N   0.388928727988978   0.277765814302583   0.875000000000000   1.0000000
N2   N   0.555564030201955   0.777787412582993   0.875000000000000   1.0000000
N2   N   0.888940820963357   0.777791611503203   0.875000000000000   1.0000000
N2   N   0.722243017414940   0.277807083667685   0.875000000000000   1.0000000
N2   N   0.053024822223264   0.776206454127922   0.375000000000000   1.0000000
N2   N   0.386848470906935   0.778449942216889   0.375000000000000   1.0000000
N2   N   0.225006583613113   0.279169958473224   0.375000000000000   1.0000000
N2   N   0.722317550724695   0.779526672294181   0.375000000000000   1.0000000
N2   N   0.554485312549235   0.269951277732954   0.375000000000000   1.0000000
N2   N   0.889440269867178   0.277551219773293   0.375000000000000   1.0000000
N2   N   0.055589671811099   0.444468512811428   0.875000000000000   1.0000000
N2   N   0.222242007589070   0.944434882102952   0.875000000000000   1.0000000
N2   N   0.555573035218304   0.944453184275817   0.875000000000000   1.0000000
N2   N   0.388928727988978   0.444496247019732   0.875000000000000   1.0000000
N2   N   0.888918572816704   0.944448925910619   0.875000000000000   1.0000000
N2   N   0.054491683694090   0.943518317141694   0.375000000000000   1.0000000
N2   N   0.722286989907585   0.444497780594809   0.875000000000000   1.0000000
N2   N   0.386848470906935   0.941731862023383   0.375000000000000   1.0000000
N2   N   0.221550283676760   0.445680585685931   0.375000000000000   1.0000000
N2   N   0.219779602451601   0.611307781937647   0.375000000000000   1.0000000
N2   N   0.722673893955567   0.945360917012046   0.375000000000000   1.0000000
N2   N   0.887404611548312   0.443506517404335   0.375000000000000   1.0000000
N2   N   0.055619189340111   0.611144926197301   0.875000000000000   1.0000000
N2   N   0.222255151853078   0.111110720687023   0.875000000000000   1.0000000
N2   N   0.722286989907585   0.611122542646111   0.875000000000000   1.0000000
N2   N   0.555564030201955   0.111109950952297   0.875000000000000   1.0000000
N2   N   0.888920430508351   0.111126881920846   0.875000000000000   1.0000000
B2   B   0.111433742480659   0.055127179873655   0.375000000000000   1.0000000
B2   B   0.607681775587229   0.559151519646429   0.375000000000000   1.0000000
B2   B   0.443403265445415   0.052033097082425   0.375000000000000   1.0000000
B2   B   0.941678277327736   0.554487605466924   0.375000000000000   1.0000000
B2   B   0.778703294876739   0.056018314105038   0.375000000000000   1.0000000
B2   B   0.111134095339518   0.722233714336425   0.875000000000000   1.0000000
B2   B   0.444450650284309   0.722160833320677   0.875000000000000   1.0000000
B2   B   0.277978819485774   0.222343626020520   0.875000000000000   1.0000000
B2   B   0.777711620536535   0.722069640645853   0.875000000000000   1.0000000
B2   B   0.611064427747243   0.222338168349418   0.875000000000000   1.0000000
B2   B   0.944503081256459   0.222274888075592   0.875000000000000   1.0000000
B2   B   0.275742381383510   0.721929078059821   0.375000000000000   1.0000000
B2   B   0.114513440328324   0.223923386830826   0.375000000000000   1.0000000
B2   B   0.442643464158292   0.215407361088682   0.375000000000000   1.0000000
B2   B   0.610604068076658   0.725680467354911   0.375000000000000   1.0000000
B2   B   0.941678277327736   0.720524005194150   0.375000000000000   1.0000000
B2   B   0.778157292093273   0.221861439013149   0.375000000000000   1.0000000
B2   B   0.111158578379841   0.888904983219283   0.875000000000000   1.0000000
B2   B   0.444449627110802   0.888891480222063   0.875000000000000   1.0000000
B2   B   0.277978819485774   0.388968526798580   0.875000000000000   1.0000000
B2   B   0.611058270360748   0.388977362821727   0.875000000000000   1.0000000
B2   B   0.777751884016508   0.888786917430237   0.875000000000000   1.0000000
B2   B   0.944458321016673   0.388948946651859   0.875000000000000   1.0000000
B2   B   0.111433742480659   0.389639895940333   0.375000000000000   1.0000000
B2   B   0.275742381383510   0.887146636657017   0.375000000000000   1.0000000
B2   B   0.611212289341083   0.890180219848956   0.375000000000000   1.0000000
B2   B   0.943540645275898   0.888260993574867   0.375000000000000   1.0000000
B2   B   0.775716057055532   0.387813325264376   0.375000000000000   1.0000000
B2   B   0.277873206711550   0.555575171816919   0.875000000000000   1.0000000
B2   B   0.111221491125842   0.055608306528372   0.875000000000000   1.0000000
B2   B   0.611058270360748   0.555414240872350   0.875000000000000   1.0000000
B2   B   0.444450650284309   0.055623150296967   0.875000000000000   1.0000000
B2   B   0.944440368250884   0.555592834959904   0.875000000000000   1.0000000
B2   B   0.109056086868046   0.555212605997682   0.375000000000000   1.0000000
B2   B   0.777779255902922   0.055556294618128   0.875000000000000   1.0000000
B2   B   0.276297452416448   0.052990754612773   0.375000000000000   1.0000000
B2   B   0.442643464158292   0.560569436402945   0.375000000000000   1.0000000
B2   B   0.773572732704132   0.553453033018734   0.375000000000000   1.0000000
B2   B   0.611212289341083   0.054365402825456   0.375000000000000   1.0000000
B2   B   0.444515693109203   0.555506833799375   0.875000000000000   1.0000000
B2   B   0.945916695798768   0.056427596666383   0.375000000000000   1.0000000
B2   B   0.277814473466379   0.722223985618549   0.875000000000000   1.0000000
B2   B   0.111273925816904   0.222303629575117   0.875000000000000   1.0000000
B2   B   0.444515693109203   0.222342192643164   0.875000000000000   1.0000000
B2   B   0.611064427747243   0.722059592731154   0.875000000000000   1.0000000
B2   B   0.944440368250884   0.722180866624314   0.875000000000000   1.0000000
B2   B   0.777751884016508   0.222298299919596   0.875000000000000   1.0000000
B2   B   0.108532000754668   0.720932667043998   0.375000000000000   1.0000000
B2   B   0.443403265445415   0.724703501696325   0.375000000000000   1.0000000
B2   B   0.281358028324304   0.222365347477833   0.375000000000000   1.0000000
B2   B   0.775716057055532   0.721236065124482   0.375000000000000   1.0000000
B2   B   0.610604068076658   0.218256934055077   0.375000000000000   1.0000000
B2   B   0.945916695798768   0.222822432465717   0.375000000000000   1.0000000
B2   B   0.111221491125842   0.388946517930799   0.875000000000000   1.0000000
B2   B   0.277814473466379   0.888923821181159   0.875000000000000   1.0000000
B2   B   0.611092291946539   0.888829747445829   0.875000000000000   1.0000000
B2   B   0.444612736739554   0.388973035036441   0.875000000000000   1.0000000
B2   B   0.944458321016673   0.888842707698146   0.875000000000000   1.0000000
B2   B   0.109056086868046   0.887176814203693   0.375000000000000   1.0000000
B2   B   0.777711620536535   0.388975313224012   0.875000000000000   1.0000000
B2   B   0.443417823309684   0.888375578321505   0.375000000000000   1.0000000
B2   B   0.281358028324304   0.392326014179799   0.375000000000000   1.0000000
B2   B   0.276297452416448   0.556640031137010   0.375000000000000   1.0000000
B2   B   0.607681775587229   0.381863589274125   0.375000000000000   1.0000000
B2   B   0.778157292093273   0.889629186413451   0.375000000000000   1.0000000
B2   B   0.943540645275898   0.388612985034359   0.375000000000000   1.0000000
B2   B   0.111158578379841   0.555586928493886   0.875000000000000   1.0000000
B2   B   0.277873206711550   0.055631368227969   0.875000000000000   1.0000000
B2   B   0.777719883064608   0.555526608198972   0.875000000000000   1.0000000
B2   B   0.611092291946539   0.055595877834039   0.875000000000000   1.0000000
B2   B   0.944503081256459   0.055561526514203   0.875000000000000   1.0000000
B2   B   0.055656067308326   0.111204804386416   0.125206361293684   1.0000000
B2   B   0.555843688329723   0.610912618245498   0.125604300465034   1.0000000
B2   B   0.389166881112107   0.111598926543728   0.125228472086177   1.0000000
B2   B   0.888496665422928   0.610914999378132   0.124884187555713   1.0000000
B2   B   0.722309765008088   0.111163012121614   0.125071840604969   1.0000000
B2   B   0.055462013015489   0.777764892952872   0.624940796251758   1.0000000
B2   B   0.389055304336064   0.777742460498671   0.624876409873274   1.0000000
B2   B   0.222390337646210   0.277861835489773   0.624989323268994   1.0000000
B2   B   0.722214197824642   0.777741474910327   0.625320589319313   1.0000000
B2   B   0.555843688329723   0.278264403417562   0.624395699534965   1.0000000
B2   B   0.888921552593476   0.277763146525182   0.624871444100077   1.0000000
B2   B   0.222292294854709   0.777812814094020   0.125179941447900   1.0000000
B2   B   0.055656067308326   0.277784596255245   0.125206361293684   1.0000000
B2   B   0.389065054244310   0.278215000060195   0.126131479639374   1.0000000
B2   B   0.555715021538678   0.777710131625344   0.124846828228017   1.0000000
B2   B   0.888736036427349   0.777728910297555   0.124792592527595   1.0000000
B2   B   0.722214197824642   0.277806056247651   0.124679410680686   1.0000000
B2   B   0.055596403456052   0.944544964397776   0.624823784369330   1.0000000
B2   B   0.389055304336064   0.944646177170727   0.624876409873274   1.0000000
B2   B   0.222399079178599   0.444344974813472   0.624970900693872   1.0000000
B2   B   0.555580379679757   0.444456856506543   0.614253773646309   1.0000000
B2   B   0.722309765008088   0.944480086219810   0.624928159395032   1.0000000
B2   B   0.888736036427349   0.444340459463132   0.625207407472404   1.0000000
B2   B   0.055596403456052   0.444384772391604   0.125176215630670   1.0000000
B2   B   0.222359543866372   0.944665049376948   0.125144905625100   1.0000000
B2   B   0.555688270469683   0.944510801901507   0.125106657113278   1.0000000
B2   B   0.389065054244310   0.444183387517451   0.126131479639374   1.0000000
B2   B   0.888921552593476   0.944491739401628   0.125128555899923   1.0000000
B2   B   0.721758187501548   0.444168638073447   0.125267720272607   1.0000000
B2   B   0.222359543866372   0.611027827822759   0.624855094374900   1.0000000
B2   B   0.055656067308326   0.111204804386416   0.624793638706317   1.0000000
B2   B   0.555843688329723   0.610912618245498   0.624395699534965   1.0000000
B2   B   0.389166881112107   0.111598926543728   0.624771527913824   1.0000000
B2   B   0.888496665422928   0.610914999378132   0.625115812444290   1.0000000
B2   B   0.055462013015489   0.611030453395954   0.125059203748241   1.0000000
B2   B   0.722309765008088   0.111163012121614   0.624928159395032   1.0000000
B2   B   0.222399079178599   0.111387437698462   0.125029099306128   1.0000000
B2   B   0.389166881112107   0.610901287901721   0.125228472086177   1.0000000
B2   B   0.721758187501548   0.610922882761439   0.125267720272607   1.0000000
B2   B   0.555715021538678   0.111338223246670   0.124846828228017   1.0000000
B2   B   0.389166881112107   0.610901287901721   0.624771527913824   1.0000000
B2   B   0.888968621020996   0.111150977177168   0.125243024925858   1.0000000
B2   B   0.222292294854709   0.777812814094020   0.624820058552098   1.0000000
B2   B   0.055656067308326   0.277784596255245   0.624793638706317   1.0000000
B2   B   0.389065054244310   0.278215000060195   0.623868520360626   1.0000000
B2   B   0.555715021538678   0.777710131625344   0.625153171771984   1.0000000
B2   B   0.888736036427349   0.777728910297555   0.625207407472404   1.0000000
B2   B   0.722214197824642   0.277806056247651   0.625320589319313   1.0000000
B2   B   0.055462013015489   0.777764892952872   0.125059203748241   1.0000000
B2   B   0.389055304336064   0.777742460498671   0.125123590126729   1.0000000
B2   B   0.222390337646210   0.277861835489773   0.125010676731005   1.0000000
B2   B   0.722214197824642   0.777741474910327   0.124679410680686   1.0000000
B2   B   0.555843688329723   0.278264403417562   0.125604300465034   1.0000000
B2   B   0.888921552593476   0.277763146525182   0.125128555899923   1.0000000
B2   B   0.055596403456052   0.444384772391604   0.624823784369330   1.0000000
B2   B   0.222359543866372   0.944665049376948   0.624855094374900   1.0000000
B2   B   0.555688270469683   0.944510801901507   0.624893342886723   1.0000000
B2   B   0.389065054244310   0.444183387517451   0.623868520360626   1.0000000
B2   B   0.888921552593476   0.944491739401628   0.624871444100077   1.0000000
B2   B   0.055596403456052   0.944544964397776   0.125176215630670   1.0000000
B2   B   0.721758187501548   0.444168638073447   0.624732279727392   1.0000000
B2   B   0.389055304336064   0.944646177170727   0.125123590126729   1.0000000
B2   B   0.222399079178599   0.444344974813472   0.125029099306128   1.0000000
B2   B   0.222359543866372   0.611027827822759   0.125144905625100   1.0000000
B2   B   0.555580379679757   0.444456856506543   0.135746226353693   1.0000000
B2   B   0.722309765008088   0.944480086219810   0.125071840604969   1.0000000
B2   B   0.888736036427349   0.444340459463132   0.124792592527595   1.0000000
B2   B   0.055462013015489   0.611030453395954   0.624940796251758   1.0000000
B2   B   0.222399079178599   0.111387437698462   0.624970900693872   1.0000000
B2   B   0.721758187501548   0.610922882761439   0.624732279727392   1.0000000
B2   B   0.555715021538678   0.111338223246670   0.625153171771984   1.0000000
B2   B   0.888968621020996   0.111150977177168   0.624756975074143   1.0000000


