data_1
_audit_creation_method   'vasp2cif'
_cell_length_a    17.52789999999977
_cell_length_b    17.52789999999977
_cell_length_c    15.0
_cell_angle_alpha    90.0
_cell_angle_beta    90.0
_cell_angle_gamma    119.99999999999916

_symmetry_space_group_name_H-M    'P 1'
loop_
_atom_site_label
_atom_site_type_symbol
_atom_site_fract_x
_atom_site_fract_y
_atom_site_fract_z
_atom_site_occupancy
B2   B   0.904683838534767   0.952360138771470   0.111009752964936   1.0000000
B2   B   0.904760031808830   0.095241737062171   0.111044208929144   1.0000000
B2   B   0.904797949128086   0.238099434457362   0.111050933017531   1.0000000
B2   B   0.904848963874492   0.380955493970007   0.110995105139023   1.0000000
B2   B   0.905161494111675   0.523867957441475   0.110999481638072   1.0000000
B2   B   0.905241501041853   0.666887564846831   0.111070111482349   1.0000000
B2   B   0.905227736779227   0.809969546908917   0.111059777364097   1.0000000
B2   B   0.047611948438525   0.952389773717475   0.111005005913198   1.0000000
B2   B   0.047641566995528   0.095317863657235   0.111009754154939   1.0000000
B2   B   0.047680853970275   0.238156109078716   0.110999007327750   1.0000000
B2   B   0.047689060750147   0.380954560558754   0.111017605370199   1.0000000
B2   B   0.047771398067717   0.523814595639631   0.111006450928134   1.0000000
B2   B   0.047802586951677   0.666714602856933   0.111015809076474   1.0000000
B2   B   0.047791949697867   0.809599726883538   0.110989136682864   1.0000000
B2   B   0.190402016136462   0.952209802341137   0.110989133146855   1.0000000
B2   B   0.190032163401085   0.094774006677772   0.111059775303096   1.0000000
B2   B   0.190727899560257   0.238362702066331   0.111016207240211   1.0000000
B2   B   0.190528924097306   0.381080405609928   0.111010979477179   1.0000000
B2   B   0.190485034612257   0.523836411888861   0.111079756702318   1.0000000
B2   B   0.190434031244394   0.666688177568015   0.111077934373536   1.0000000
B2   B   0.190506452522478   0.809495183815521   0.110999483392117   1.0000000
B2   B   0.333287064605069   0.952199054407322   0.111015806193476   1.0000000
B2   B   0.333114187000171   0.094760238707142   0.111070110478352   1.0000000
B2   B   0.332217310802887   0.236777325071337   0.111077373704940   1.0000000
B2   B   0.334132900672201   0.381615102822056   0.111011438659813   1.0000000
B2   B   0.333086299633112   0.524343998003628   0.111061618466070   1.0000000
B2   B   0.333100546743328   0.666901275868671   0.111116630049009   1.0000000
B2   B   0.333313474457979   0.809567653342605   0.111077932591538   1.0000000
B2   B   0.476187048276370   0.952230193383286   0.111006456224136   1.0000000
B2   B   0.476133762979522   0.094840175113325   0.110999495658075   1.0000000
B2   B   0.475939332535344   0.237196238186130   0.111041864347237   1.0000000
B2   B   0.473951983178350   0.377651226284854   0.110893965771727   1.0000000
B2   B   0.475657730985371   0.666915462617884   0.111061618137067   1.0000000
B2   B   0.476165375122140   0.809516795216738   0.111079756677314   1.0000000
B2   B   0.619047184331245   0.952312666973865   0.111017608103203   1.0000000
B2   B   0.619046164066993   0.095152650031509   0.110995112357021   1.0000000
B2   B   0.619011856491854   0.237988287790940   0.111018683451817   1.0000000
B2   B   0.619015890644240   0.380985908634757   0.110969902071836   1.0000000
B2   B   0.622350507780148   0.526049652532651   0.110893965597722   1.0000000
B2   B   0.618386554803945   0.665868697261793   0.111011436245815   1.0000000
B2   B   0.618921319120069   0.809472839515693   0.111010977642181   1.0000000
B2   B   0.761845613523277   0.952320894279725   0.110999009681750   1.0000000
B2   B   0.761902266445637   0.095203739879916   0.111050932521530   1.0000000
B2   B   0.761921645847102   0.238079977383897   0.111056918878641   1.0000000
B2   B   0.762013444589059   0.380989868135144   0.111018676874820   1.0000000
B2   B   0.762805630908871   0.524062439449661   0.111041857113237   1.0000000
B2   B   0.763224464006661   0.667784381754112   0.111077375263935   1.0000000
B2   B   0.761638953602665   0.809273764141745   0.111016208260216   1.0000000
C2   C   0.474115310181961   0.525886228561039   0.111289778464285   1.0000000
C2   C   0.522472635284200   0.477529118587798   0.110887518472332   1.0000000
N2   N   0.952527821260026   0.905010579489320   0.111008972658039   1.0000000
N2   N   0.952353044493699   0.047648675635300   0.111005139002325   1.0000000
N2   N   0.952434767997537   0.190500029294305   0.111024806695777   1.0000000
N2   N   0.952459786124182   0.333329816258588   0.111005113530083   1.0000000
N2   N   0.952617750735536   0.476164827124412   0.110951986515366   1.0000000
N2   N   0.952673022039997   0.619105881977465   0.111009106866145   1.0000000
N2   N   0.952668538536485   0.762123361806329   0.111030330113635   1.0000000
N2   N   0.095241440703930   0.904760324869073   0.110957827339726   1.0000000
N2   N   0.094991135429682   0.047473905232970   0.111008983165041   1.0000000
N2   N   0.095438818516068   0.190721554453895   0.110975494097241   1.0000000
N2   N   0.095363681166086   0.333392220937974   0.110985216113163   1.0000000
N2   N   0.095359587824674   0.476167749975081   0.111019720451396   1.0000000
N2   N   0.095302997064833   0.619022133930242   0.111017160069381   1.0000000
N2   N   0.095345517286673   0.761923979074743   0.110974446408983   1.0000000
N2   N   0.238077688552254   0.904656135092325   0.110974445485981   1.0000000
N2   N   0.237878381365671   0.047333238818510   0.111030319906632   1.0000000
N2   N   0.237295220057567   0.189756717690632   0.111054917940639   1.0000000
N2   N   0.238838792821031   0.334147967788214   0.110998645625270   1.0000000
N2   N   0.238140767157821   0.476201104984538   0.111032959378238   1.0000000
N2   N   0.237977170672302   0.619067027538621   0.111085364902916   1.0000000
N2   N   0.238103280243099   0.761898369199901   0.111039269333239   1.0000000
N2   N   0.380979509660756   0.904698626154167   0.111017150785379   1.0000000
N2   N   0.380895823336534   0.047328608812008   0.111009112426149   1.0000000
N2   N   0.380580579931484   0.189795742835047   0.111076059515097   1.0000000
N2   N   0.379269344492013   0.331298978920161   0.110996565845514   1.0000000
N2   N   0.382095171454731   0.478181508201124   0.110999529918464   1.0000000
N2   N   0.380595661915000   0.619406092919997   0.111095695016142   1.0000000
N2   N   0.380934771234378   0.762024688182699   0.111085371784913   1.0000000
N2   N   0.523834026341926   0.904642215238326   0.111019725719395   1.0000000
N2   N   0.523836829696587   0.047383793370463   0.110952004512362   1.0000000
N2   N   0.523771500934651   0.189961112532447   0.111014856977238   1.0000000
N2   N   0.523389527333059   0.332191522251001   0.110939491497676   1.0000000
N2   N   0.521820038572877   0.617906328508267   0.110999533451461   1.0000000
N2   N   0.523800631317465   0.761861045925181   0.111032954351241   1.0000000
N2   N   0.666609534288021   0.904638102989920   0.110985214818163   1.0000000
N2   N   0.666671896231410   0.047541888257809   0.111005116241081   1.0000000
N2   N   0.666679103768686   0.190428851192677   0.111016433087083   1.0000000
N2   N   0.666635227871442   0.333366530297557   0.111003457823571   1.0000000
N2   N   0.667810412716001   0.476612247693943   0.110939486654673   1.0000000
N2   N   0.668702816268846   0.620732303657991   0.110996567153517   1.0000000
N2   N   0.665853635590783   0.761162857040976   0.110998640840269   1.0000000
N2   N   0.809280128804103   0.904562889570930   0.110975495770243   1.0000000
N2   N   0.809501740540697   0.047567015164469   0.111024810161776   1.0000000
N2   N   0.809548393095519   0.190453264335480   0.111048815661261   1.0000000
N2   N   0.809572777131323   0.333322539492315   0.111016427571083   1.0000000
N2   N   0.810040612508555   0.476230217100350   0.111014837648238   1.0000000
N2   N   0.810206090713953   0.619421171114516   0.111076058885095   1.0000000
N2   N   0.810245010153369   0.762706473605435   0.111054922692635   1.0000000


