data_1
_audit_creation_method   'vasp2cif'
_cell_length_a    17.52789999999977
_cell_length_b    17.52789999999977
_cell_length_c    15.0
_cell_angle_alpha    90.0
_cell_angle_beta    90.0
_cell_angle_gamma    119.99999999999916

_symmetry_space_group_name_H-M    'P 1'
loop_
_atom_site_label
_atom_site_type_symbol
_atom_site_fract_x
_atom_site_fract_y
_atom_site_fract_z
_atom_site_occupancy
B2   B   0.905533015509668   0.953235376079046   0.120223111974661   1.0000000
B2   B   0.904429009583722   0.095696660340949   0.120628945331667   1.0000000
B2   B   0.904048479557621   0.238559688461206   0.118746658531319   1.0000000
B2   B   0.904070619794004   0.381394386234295   0.116841269662619   1.0000000
B2   B   0.904696603425485   0.524183670508345   0.116001287234174   1.0000000
B2   B   0.906230191569493   0.667335457363037   0.115891566004350   1.0000000
B2   B   0.906880125633075   0.810979924043290   0.117387450767009   1.0000000
B2   B   0.048030081250995   0.952115909463667   0.123924463271928   1.0000000
B2   B   0.046873426509759   0.094606652641316   0.119659520373014   1.0000000
B2   B   0.046544996617160   0.237702122919315   0.113921362794158   1.0000000
B2   B   0.046976286812432   0.380771076649960   0.111811090848807   1.0000000
B2   B   0.048022916603663   0.523568712091642   0.114660779753579   1.0000000
B2   B   0.048666580113270   0.666356640374912   0.119942286724548   1.0000000
B2   B   0.048689039265197   0.809329520366080   0.123626825103380   1.0000000
B2   B   0.190804141759429   0.951463038800025   0.123243228894334   1.0000000
B2   B   0.189142253233600   0.093274113154095   0.116989105132980   1.0000000
B2   B   0.187827345588276   0.235497802914939   0.106994676382937   1.0000000
B2   B   0.188951155395842   0.379568781414901   0.101749224505872   1.0000000
B2   B   0.191291831295289   0.522862284940950   0.104754563624226   1.0000000
B2   B   0.191757498030256   0.665773628161663   0.113377509579045   1.0000000
B2   B   0.191471371136803   0.808675794511906   0.121500447856643   1.0000000
B2   B   0.333766775633109   0.951474828911258   0.119230527699184   1.0000000
B2   B   0.332769117925404   0.093895429870841   0.115120649191735   1.0000000
B2   B   0.329562248259490   0.233650574365689   0.103730512494829   1.0000000
B2   B   0.328205517027623   0.376054951177601   0.093853908043341   1.0000000
B2   B   0.334855949512554   0.521316746351922   0.093432674194459   1.0000000
B2   B   0.335073638497669   0.665121134241434   0.101943553602397   1.0000000
B2   B   0.334360801105129   0.808386867981620   0.113338317748819   1.0000000
B2   B   0.476578136414001   0.952113194610904   0.114991396243203   1.0000000
B2   B   0.475952245029386   0.095437352661170   0.115390814466711   1.0000000
B2   B   0.474824059067765   0.238350498857480   0.107007684121270   1.0000000
B2   B   0.468507406984343   0.376348926023252   0.095704683815007   1.0000000
B2   B   0.478899783716494   0.665354193138374   0.093406079832039   1.0000000
B2   B   0.477312749217078   0.808858557258648   0.105362093582258   1.0000000
B2   B   0.619359933492114   0.953116010296873   0.113579871118734   1.0000000
B2   B   0.618760723565177   0.096069560635608   0.117708198510149   1.0000000
B2   B   0.618168115427396   0.239381958052010   0.113309260544071   1.0000000
B2   B   0.617280940833671   0.382885115013746   0.104463274219761   1.0000000
B2   B   0.623858576261357   0.531678592805339   0.095315360469745   1.0000000
B2   B   0.624175198126200   0.672007890423180   0.093334580510425   1.0000000
B2   B   0.620601299120821   0.811201688354630   0.102535369689272   1.0000000
B2   B   0.762423027135770   0.953547183203079   0.115507621815879   1.0000000
B2   B   0.761576815804478   0.096079580371745   0.120015603912957   1.0000000
B2   B   0.761123582559844   0.239043441693597   0.118510009904185   1.0000000
B2   B   0.760769636815564   0.381998293291141   0.113452718517889   1.0000000
B2   B   0.761791802462419   0.525319967804136   0.107374924432827   1.0000000
B2   B   0.766542725685588   0.670589458111083   0.103620648216222   1.0000000
B2   B   0.764663756382265   0.812311583776837   0.107463311229543   1.0000000
N2   N   0.953301451436285   0.905560942805466   0.122151453907836   1.0000000
N2   N   0.952123621341775   0.048001801897024   0.121839556026675   1.0000000
N2   N   0.951598275516514   0.190770364194044   0.118817712741956   1.0000000
N2   N   0.951699131557880   0.333701767974631   0.116456809832632   1.0000000
N2   N   0.952376505889083   0.476516571486556   0.116550074114122   1.0000000
N2   N   0.953290458638843   0.619292831313112   0.118327383144903   1.0000000
N2   N   0.953680806813076   0.762415510031534   0.119951547968841   1.0000000
N2   N   0.095759606007420   0.904373930083112   0.125336872599880   1.0000000
N2   N   0.094543193269383   0.046830810238896   0.121780766758702   1.0000000
N2   N   0.093464407462764   0.189275130955513   0.113952455649419   1.0000000
N2   N   0.094045077427047   0.332745559769319   0.108879452653472   1.0000000
N2   N   0.095654175461686   0.475915103209324   0.110201856505555   1.0000000
N2   N   0.096287421716254   0.618685058218592   0.116705499998096   1.0000000
N2   N   0.096234445858044   0.761479637235335   0.123169707350885   1.0000000
N2   N   0.238655076064568   0.903912876100532   0.122687005399499   1.0000000
N2   N   0.237700395753160   0.046455661880328   0.119373291519637   1.0000000
N2   N   0.235200846956892   0.187479345512079   0.108612686334963   1.0000000
N2   N   0.234204942648039   0.329917659214781   0.099096632217150   1.0000000
N2   N   0.238650125886919   0.474851860866136   0.098603913507669   1.0000000
N2   N   0.239456527463273   0.618124411935958   0.106178307568989   1.0000000
N2   N   0.239134165640830   0.760999954819461   0.116688681500172   1.0000000
N2   N   0.381448104839679   0.903870379776169   0.116393202044723   1.0000000
N2   N   0.380839420686260   0.046849102677301   0.117219647717718   1.0000000
N2   N   0.379567606942024   0.188827944876762   0.108139263560735   1.0000000
N2   N   0.374873252733347   0.327456072472389   0.095402546522157   1.0000000
N2   N   0.379173028243898   0.470071565504301   0.089562251959776   1.0000000
N2   N   0.382965418924784   0.617229655227841   0.094376830684021   1.0000000
N2   N   0.382029857086314   0.760700407996604   0.106361576075725   1.0000000
N2   N   0.524242541099893   0.904473899193519   0.111300133066006   1.0000000
N2   N   0.523637530759479   0.047782362848944   0.116718856018074   1.0000000
N2   N   0.522932484658680   0.191158364634667   0.111921108249701   1.0000000
N2   N   0.521560387832734   0.334730743239998   0.101625153825755   1.0000000
N2   N   0.530147231278862   0.621042508660458   0.089099155311863   1.0000000
N2   N   0.525337813124951   0.761518679767388   0.099061761933990   1.0000000
N2   N   0.667385551094365   0.906040221395700   0.110641563218477   1.0000000
N2   N   0.666420911180310   0.048411336544373   0.118398059097241   1.0000000
N2   N   0.665856225446853   0.191599567643432   0.117405096298591   1.0000000
N2   N   0.665136130137071   0.335004628370774   0.110578924573924   1.0000000
N2   N   0.665431713945473   0.478609129025165   0.101628411390631   1.0000000
N2   N   0.672786608080736   0.625326016641176   0.094664370629814   1.0000000
N2   N   0.670281901186823   0.765966872678470   0.099196237654545   1.0000000
N2   N   0.810842081020870   0.906614495446853   0.115112690604240   1.0000000
N2   N   0.809351611121594   0.048514444198196   0.120233109799234   1.0000000
N2   N   0.808814935366284   0.191331810861631   0.120474731927149   1.0000000
N2   N   0.808552222304821   0.334304226753102   0.117103598555614   1.0000000
N2   N   0.808975716197300   0.477220523188012   0.112539908482616   1.0000000
N2   N   0.811317481760611   0.620575320819997   0.108553220537144   1.0000000
N2   N   0.812680123832313   0.764931607925579   0.108801520010829   1.0000000
Si2   Si   0.493501991982549   0.506688421859133   0.086791898864483   1.0000000


