data_1
_audit_creation_method   'vasp2cif'
_cell_length_a    14.93631414619966
_cell_length_b    14.936314146199727
_cell_length_c    13.341276283792837
_cell_angle_alpha    90.0
_cell_angle_beta    90.0
_cell_angle_gamma    119.99999999999984

_symmetry_space_group_name_H-M    'P 1'
loop_
_atom_site_label
_atom_site_type_symbol
_atom_site_fract_x
_atom_site_fract_y
_atom_site_fract_z
_atom_site_occupancy
C2   C   0.389680400538668   0.441542955353470   0.375000000000000   1.0000000
C2   C   0.444224747197883   0.388449494395766   0.375000000000000   1.0000000
C2   C   0.551862554814802   0.441542955353470   0.375000000000000   1.0000000
N2   N   0.111108299369322   0.055569458598601   0.124912107975764   1.0000000
N2   N   0.611131623193010   0.555597310812884   0.124402420814413   1.0000000
N2   N   0.444461159229279   0.055569458598601   0.124912107975764   1.0000000
N2   N   0.944432404546405   0.555536422643703   0.124895661858832   1.0000000
N2   N   0.777779778796703   0.055559557593405   0.124910617447936   1.0000000
N2   N   0.111105721283488   0.722211442566969   0.625085084839659   1.0000000
N2   N   0.444461144451014   0.722235504570200   0.625146277455905   1.0000000
N2   N   0.277775104757371   0.222239429701210   0.625099964755693   1.0000000
N2   N   0.777774360119186   0.722235504570200   0.625146277455905   1.0000000
N2   N   0.611132002447628   0.222210754232945   0.625126001537595   1.0000000
N2   N   0.944424831768147   0.222207318534660   0.625102724008738   1.0000000
N2   N   0.277785232654530   0.722215728680686   0.124902029259743   1.0000000
N2   N   0.111078751785324   0.222210754232945   0.124873998462406   1.0000000
N2   N   0.444464324943838   0.222239429701210   0.124900035244307   1.0000000
N2   N   0.611119441569382   0.722238883138758   0.124846135953021   1.0000000
N2   N   0.944430496026156   0.722215728680686   0.124902029259743   1.0000000
N2   N   0.777782486766514   0.222207318534660   0.124897275991262   1.0000000
N2   N   0.111108664857403   0.888896461937479   0.625083600241619   1.0000000
N2   N   0.444460197764051   0.888901885291983   0.625088407568118   1.0000000
N2   N   0.277706981948803   0.388850911531447   0.625599082136855   1.0000000
N2   N   0.611143929582651   0.388850911531447   0.625599082136855   1.0000000
N2   N   0.777783500898403   0.888907833421602   0.625099872019177   1.0000000
N2   N   0.944435425452462   0.388870850904925   0.625093756823307   1.0000000
N2   N   0.111083451543706   0.388866472254328   0.124869112131056   1.0000000
N2   N   0.277787797080084   0.888896461937479   0.124916399758381   1.0000000
N2   N   0.611124332523207   0.888907833421602   0.124900127980823   1.0000000
N2   N   0.444430145177168   0.388860290354336   0.124299414207940   1.0000000
N2   N   0.944441687527931   0.888901885291983   0.124911592431882   1.0000000
N2   N   0.777783020710629   0.388866472254328   0.124869112131056   1.0000000
N2   N   0.277777475731302   0.555541833933950   0.625149381695490   1.0000000
N2   N   0.111108299369322   0.055569458598601   0.625087892024236   1.0000000
N2   N   0.611131623193010   0.555597310812884   0.625597579185587   1.0000000
N2   N   0.444461159229279   0.055569458598601   0.625087892024236   1.0000000
N2   N   0.944432404546405   0.555536422643703   0.625104338141168   1.0000000
N2   N   0.111104018097299   0.555536422643703   0.124895661858832   1.0000000
N2   N   0.777779778796703   0.055559557593405   0.625089382552064   1.0000000
N2   N   0.277789090415073   0.055578180830146   0.124909923695095   1.0000000
N2   N   0.444465687619874   0.555597310812884   0.124402420814413   1.0000000
N2   N   0.777764358202648   0.555541833933950   0.124850618304511   1.0000000
N2   N   0.611123215526801   0.055559941644585   0.124912319209906   1.0000000
N2   N   0.444465687619874   0.555597310812884   0.625597579185587   1.0000000
N2   N   0.944436726117785   0.055559941644585   0.124912319209906   1.0000000
N2   N   0.277785232654530   0.722215728680686   0.625097970740257   1.0000000
N2   N   0.111078751785324   0.222210754232945   0.625126001537595   1.0000000
N2   N   0.444464324943838   0.222239429701210   0.625099964755693   1.0000000
N2   N   0.611119441569382   0.722238883138758   0.625153864046979   1.0000000
N2   N   0.944430496026156   0.722215728680686   0.625097970740257   1.0000000
N2   N   0.777782486766514   0.222207318534660   0.625102724008738   1.0000000
N2   N   0.111105721283488   0.722211442566969   0.124914915160341   1.0000000
N2   N   0.444461144451014   0.722235504570200   0.124853722544095   1.0000000
N2   N   0.277775104757371   0.222239429701210   0.124900035244307   1.0000000
N2   N   0.777774360119186   0.722235504570200   0.124853722544095   1.0000000
N2   N   0.611132002447628   0.222210754232945   0.124873998462406   1.0000000
N2   N   0.944424831768147   0.222207318534660   0.124897275991262   1.0000000
N2   N   0.111083451543706   0.388866472254328   0.625130887868944   1.0000000
N2   N   0.277787797080084   0.888896461937479   0.625083600241619   1.0000000
N2   N   0.611124332523207   0.888907833421602   0.625099872019177   1.0000000
N2   N   0.444430145177168   0.388860290354336   0.625700585792060   1.0000000
N2   N   0.944441687527931   0.888901885291983   0.625088407568118   1.0000000
N2   N   0.111108664857403   0.888896461937479   0.124916399758381   1.0000000
N2   N   0.777783020710629   0.388866472254328   0.625130887868944   1.0000000
N2   N   0.444460197764051   0.888901885291983   0.124911592431882   1.0000000
N2   N   0.277706981948803   0.388850911531447   0.124400917863145   1.0000000
N2   N   0.277777475731302   0.555541833933950   0.124850618304511   1.0000000
N2   N   0.611143929582651   0.388850911531447   0.124400917863145   1.0000000
N2   N   0.777783500898403   0.888907833421602   0.124900127980823   1.0000000
N2   N   0.944435425452462   0.388870850904925   0.124906243176693   1.0000000
N2   N   0.111104018097299   0.555536422643703   0.625104338141168   1.0000000
N2   N   0.277789090415073   0.055578180830146   0.625090076304905   1.0000000
N2   N   0.777764358202648   0.555541833933950   0.625149381695490   1.0000000
N2   N   0.611123215526801   0.055559941644585   0.625087680790094   1.0000000
N2   N   0.944436726117785   0.055559941644585   0.625087680790094   1.0000000
N2   N   0.054770099883433   0.110176248086160   0.375000000000000   1.0000000
N2   N   0.557526391491255   0.615052782982510   0.375000000000000   1.0000000
N2   N   0.388781439576191   0.111389518331395   0.375000000000000   1.0000000
N2   N   0.889060039742498   0.611220912627526   0.375000000000000   1.0000000
N2   N   0.722234243145335   0.110988348206905   0.375000000000000   1.0000000
N2   N   0.055558166070230   0.777777717726145   0.875000000000000   1.0000000
N2   N   0.388885192016486   0.777779474288784   0.875000000000000   1.0000000
N2   N   0.222222844913434   0.277773861201867   0.875000000000000   1.0000000
N2   N   0.722222401258381   0.777773801578718   0.875000000000000   1.0000000
N2   N   0.555551016288432   0.277773861201867   0.875000000000000   1.0000000
N2   N   0.888891457022645   0.277782914045297   0.875000000000000   1.0000000
N2   N   0.222170965448185   0.777911130918891   0.375000000000000   1.0000000
N2   N   0.054846730172087   0.277406504824404   0.375000000000000   1.0000000
N2   N   0.389584840348220   0.279169680696446   0.375000000000000   1.0000000
N2   N   0.555738789174971   0.779059869155746   0.375000000000000   1.0000000
N2   N   0.889570406650747   0.778283458038431   0.375000000000000   1.0000000
N2   N   0.722559774652317   0.277406504824404   0.375000000000000   1.0000000
N2   N   0.055554772811986   0.944440135816717   0.875000000000000   1.0000000
N2   N   0.388885363004731   0.944440135816717   0.875000000000000   1.0000000
N2   N   0.222222378110195   0.444449852196182   0.875000000000000   1.0000000
N2   N   0.555555522238144   0.444446723682622   0.875000000000000   1.0000000
N2   N   0.722219739130951   0.944439478261902   0.875000000000000   1.0000000
N2   N   0.888894110427666   0.444450743225373   0.875000000000000   1.0000000
N2   N   0.055230984233778   0.444548402423306   0.375000000000000   1.0000000
N2   N   0.222274662620671   0.944549325241342   0.375000000000000   1.0000000
N2   N   0.555429050868316   0.944560236084416   0.375000000000000   1.0000000
N2   N   0.889131185216100   0.944560236084416   0.375000000000000   1.0000000
N2   N   0.723206270220888   0.444043034447448   0.375000000000000   1.0000000
N2   N   0.222216927821641   0.611114987257297   0.875000000000000   1.0000000
N2   N   0.055555398681097   0.111104985001469   0.875000000000000   1.0000000
N2   N   0.555554996923254   0.611109993846508   0.875000000000000   1.0000000
N2   N   0.388884453875248   0.111101720338729   0.875000000000000   1.0000000
N2   N   0.888898059435648   0.611114987257297   0.875000000000000   1.0000000
N2   N   0.055652469714786   0.611304939429573   0.375000000000000   1.0000000
N2   N   0.722217645770692   0.111107603042453   0.875000000000000   1.0000000
N2   N   0.222608078755197   0.111389518331395   0.375000000000000   1.0000000
N2   N   0.389069346275705   0.612151999773047   0.375000000000000   1.0000000
N2   N   0.723082653497334   0.612151999773047   0.375000000000000   1.0000000
N2   N   0.555406148202727   0.110176248086160   0.375000000000000   1.0000000
N2   N   0.388883891819345   0.611112544583426   0.875000000000000   1.0000000
N2   N   0.888754105061564   0.110988348206905   0.375000000000000   1.0000000
N2   N   0.222219551655915   0.777777717726145   0.875000000000000   1.0000000
N2   N   0.055557513329419   0.277778977689000   0.875000000000000   1.0000000
N2   N   0.388886157253590   0.277772314507186   0.875000000000000   1.0000000
N2   N   0.555551400320337   0.777773801578718   0.875000000000000   1.0000000
N2   N   0.888894282272291   0.777779474288784   0.875000000000000   1.0000000
N2   N   0.722221464359580   0.277778977689000   0.875000000000000   1.0000000
N2   N   0.055740165470706   0.777911130918891   0.375000000000000   1.0000000
N2   N   0.388713051387677   0.778283458038431   0.375000000000000   1.0000000
N2   N   0.219534566861690   0.275382615133570   0.375000000000000   1.0000000
N2   N   0.723321079980774   0.779059869155746   0.375000000000000   1.0000000
N2   N   0.555848048271881   0.275382615133570   0.375000000000000   1.0000000
N2   N   0.888866741676376   0.277733483352759   0.375000000000000   1.0000000
N2   N   0.055556632797707   0.444450743225373   0.875000000000000   1.0000000
N2   N   0.222219106696961   0.944438213393922   0.875000000000000   1.0000000
N2   N   0.555549713345758   0.944441366705016   0.875000000000000   1.0000000
N2   N   0.388891201444478   0.444446723682622   0.875000000000000   1.0000000
N2   N   0.888891653359257   0.944441366705016   0.875000000000000   1.0000000
N2   N   0.055920288748560   0.944633312725663   0.375000000000000   1.0000000
N2   N   0.722227474085987   0.444449852196182   0.875000000000000   1.0000000
N2   N   0.388713023977103   0.944633312725663   0.375000000000000   1.0000000
N2   N   0.220836764226560   0.444043034447448   0.375000000000000   1.0000000
N2   N   0.222160872885021   0.611220912627526   0.375000000000000   1.0000000
N2   N   0.722395877617390   0.944791755234780   0.375000000000000   1.0000000
N2   N   0.889317418189528   0.444548402423306   0.375000000000000   1.0000000
N2   N   0.055556481310301   0.611112962620603   0.875000000000000   1.0000000
N2   N   0.222217266463474   0.111101720338729   0.875000000000000   1.0000000
N2   N   0.722228652764074   0.611112544583426   0.875000000000000   1.0000000
N2   N   0.555549586320372   0.111104985001469   0.875000000000000   1.0000000
N2   N   0.888889957271753   0.111107603042453   0.875000000000000   1.0000000
B2   B   0.111449972205567   0.055784494220995   0.375000000000000   1.0000000
B2   B   0.610376845952037   0.556830036642401   0.375000000000000   1.0000000
B2   B   0.444334522015428   0.055784494220995   0.375000000000000   1.0000000
B2   B   0.944439462657085   0.555684936924711   0.375000000000000   1.0000000
B2   B   0.777789066415740   0.055578132831479   0.375000000000000   1.0000000
B2   B   0.111106479435844   0.722212958871680   0.875000000000000   1.0000000
B2   B   0.444432471614707   0.722170070275337   0.875000000000000   1.0000000
B2   B   0.277821992278934   0.222271552550272   0.875000000000000   1.0000000
B2   B   0.777737598660630   0.722170070275337   0.875000000000000   1.0000000
B2   B   0.611090240287365   0.222255931449072   0.875000000000000   1.0000000
B2   B   0.944469452440695   0.222240252635869   0.875000000000000   1.0000000
B2   B   0.277696282262110   0.722161589571413   0.375000000000000   1.0000000
B2   B   0.109835674031381   0.221096020604835   0.375000000000000   1.0000000
B2   B   0.445367100754194   0.223102009037259   0.375000000000000   1.0000000
B2   B   0.612069979279557   0.724139958559107   0.375000000000000   1.0000000
B2   B   0.944465307309304   0.722161589571413   0.375000000000000   1.0000000
B2   B   0.777874372456196   0.222177109155655   0.375000000000000   1.0000000
B2   B   0.111109727503216   0.888886544888438   0.875000000000000   1.0000000
B2   B   0.444434062630727   0.888868944982380   0.875000000000000   1.0000000
B2   B   0.277846175019019   0.388923721123915   0.875000000000000   1.0000000
B2   B   0.611077546104903   0.388923721123915   0.875000000000000   1.0000000
B2   B   0.777756611952740   0.888845083503825   0.875000000000000   1.0000000
B2   B   0.944454679212644   0.388909358425290   0.875000000000000   1.0000000
B2   B   0.110859935769854   0.388980095914271   0.375000000000000   1.0000000
B2   B   0.277706222269646   0.888946087287872   0.375000000000000   1.0000000
B2   B   0.611123534664737   0.889266933291287   0.375000000000000   1.0000000
B2   B   0.944782737695771   0.889045692156160   0.375000000000000   1.0000000
B2   B   0.778120160144425   0.388980095914271   0.375000000000000   1.0000000
B2   B   0.277806784702934   0.555543446340164   0.875000000000000   1.0000000
B2   B   0.111132396699439   0.055571690772066   0.875000000000000   1.0000000
B2   B   0.611070752439135   0.555516250479370   0.875000000000000   1.0000000
B2   B   0.444439294072627   0.055571690772066   0.875000000000000   1.0000000
B2   B   0.944430864992658   0.555557524043384   0.875000000000000   1.0000000
B2   B   0.111245474267625   0.555684936924711   0.375000000000000   1.0000000
B2   B   0.777772107616926   0.055544215233851   0.875000000000000   1.0000000
B2   B   0.277905019854055   0.055810039708111   0.375000000000000   1.0000000
B2   B   0.446453190690364   0.556830036642401   0.375000000000000   1.0000000
B2   B   0.777137682836574   0.555262973808762   0.375000000000000   1.0000000
B2   B   0.611074255088501   0.055239490194210   0.375000000000000   1.0000000
B2   B   0.444445498040235   0.555516250479370   0.875000000000000   1.0000000
B2   B   0.944165235105709   0.055239490194210   0.375000000000000   1.0000000
B2   B   0.277781989800203   0.722203675063554   0.875000000000000   1.0000000
B2   B   0.111165691161714   0.222255931449072   0.875000000000000   1.0000000
B2   B   0.444449560271338   0.222271552550272   0.875000000000000   1.0000000
B2   B   0.611074947691668   0.722149895383329   0.875000000000000   1.0000000
B2   B   0.944421685263351   0.722203675063554   0.875000000000000   1.0000000
B2   B   0.777770800195174   0.222240252635869   0.875000000000000   1.0000000
B2   B   0.111142425520479   0.722284851040951   0.375000000000000   1.0000000
B2   B   0.444244725965944   0.722356531681751   0.375000000000000   1.0000000
B2   B   0.277734908283065   0.223102009037259   0.375000000000000   1.0000000
B2   B   0.778111805715807   0.722356531681751   0.375000000000000   1.0000000
B2   B   0.611260346573462   0.221096020604835   0.375000000000000   1.0000000
B2   B   0.944302736699459   0.222177109155655   0.375000000000000   1.0000000
B2   B   0.111161819786101   0.388913221110581   0.875000000000000   1.0000000
B2   B   0.277776817385229   0.888886544888438   0.875000000000000   1.0000000
B2   B   0.611088471551092   0.888845083503825   0.875000000000000   1.0000000
B2   B   0.444464927764578   0.388929855529156   0.875000000000000   1.0000000
B2   B   0.944434882351653   0.888868944982380   0.875000000000000   1.0000000
B2   B   0.111239865018233   0.888946087287872   0.375000000000000   1.0000000
B2   B   0.777751401324487   0.388913221110581   0.875000000000000   1.0000000
B2   B   0.444262954460389   0.889045692156160   0.375000000000000   1.0000000
B2   B   0.275839593053705   0.386907472430049   0.375000000000000   1.0000000
B2   B   0.278125290972188   0.555262973808762   0.375000000000000   1.0000000
B2   B   0.611067879376351   0.386907472430049   0.375000000000000   1.0000000
B2   B   0.778143398626557   0.889266933291287   0.375000000000000   1.0000000
B2   B   0.944497564993577   0.388995129987154   0.375000000000000   1.0000000
B2   B   0.111126659050726   0.555557524043384   0.875000000000000   1.0000000
B2   B   0.277790425779681   0.055580851559362   0.875000000000000   1.0000000
B2   B   0.777736661637230   0.555543446340164   0.875000000000000   1.0000000
B2   B   0.611095530419322   0.055553867270649   0.875000000000000   1.0000000
B2   B   0.944458336851326   0.055553867270649   0.875000000000000   1.0000000
B2   B   0.055600746378855   0.111195893381563   0.125093663174734   1.0000000
B2   B   0.555459890315621   0.610919780631242   0.125214824981388   1.0000000
B2   B   0.388976710201213   0.111289288654744   0.125124633058737   1.0000000
B2   B   0.888721514012947   0.611014974653547   0.125141771826515   1.0000000
B2   B   0.722229742912761   0.111128336386261   0.125074943984348   1.0000000
B2   B   0.055499122598932   0.777743031160195   0.624927238313742   1.0000000
B2   B   0.388939881426066   0.777706344389532   0.624888577859442   1.0000000
B2   B   0.222354345053967   0.277962038353659   0.624850727512328   1.0000000
B2   B   0.722122442509651   0.777668684406291   0.624848505046691   1.0000000
B2   B   0.555607693299692   0.277962038353659   0.624850727512328   1.0000000
B2   B   0.888889206855426   0.277778413710860   0.624917260020427   1.0000000
B2   B   0.222243908561263   0.777743031160195   0.125072761686258   1.0000000
B2   B   0.055614165253088   0.277812435484474   0.125115970712583   1.0000000
B2   B   0.389039071937431   0.278078143874870   0.125155030030822   1.0000000
B2   B   0.555546241896641   0.777668684406291   0.125151494953309   1.0000000
B2   B   0.888766462963459   0.777706344389532   0.125111422140558   1.0000000
B2   B   0.722198270231387   0.277812435484474   0.125115970712583   1.0000000
B2   B   0.055549962188390   0.944486171395205   0.624930044072166   1.0000000
B2   B   0.388936209206814   0.944486171395205   0.624930044072166   1.0000000
B2   B   0.222352459611262   0.444389511434885   0.624822181935232   1.0000000
B2   B   0.555448284064630   0.444422696804094   0.623973726889009   1.0000000
B2   B   0.722205970118999   0.944411940237998   0.624914612194785   1.0000000
B2   B   0.888813879695887   0.444400847546607   0.624886983569733   1.0000000
B2   B   0.055586967850720   0.444400847546607   0.125113016430268   1.0000000
B2   B   0.222256455360641   0.944512910721283   0.125064037955325   1.0000000
B2   B   0.555578499384643   0.944433977620001   0.125078323054129   1.0000000
B2   B   0.388974412739463   0.444422696804094   0.126026273110991   1.0000000
B2   B   0.888855478235358   0.944433977620001   0.125078323054129   1.0000000
B2   B   0.722037051823624   0.444389511434885   0.125177818064768   1.0000000
B2   B   0.222293460640593   0.611014974653547   0.624858228173486   1.0000000
B2   B   0.055600746378855   0.111195893381563   0.624906336825266   1.0000000
B2   B   0.555459890315621   0.610919780631242   0.624785175018612   1.0000000
B2   B   0.388976710201213   0.111289288654744   0.624875366941263   1.0000000
B2   B   0.888721514012947   0.611014974653547   0.624858228173486   1.0000000
B2   B   0.055521239932240   0.611042479864480   0.125082416177395   1.0000000
B2   B   0.722229742912761   0.111128336386261   0.624925056015652   1.0000000
B2   B   0.222312578453524   0.111289288654744   0.125124633058737   1.0000000
B2   B   0.388981703526702   0.610958272102185   0.125208774400842   1.0000000
B2   B   0.721976568575477   0.610958272102185   0.125208774400842   1.0000000
B2   B   0.555595147002708   0.111195893381563   0.125093663174734   1.0000000
B2   B   0.388981703526702   0.610958272102185   0.624791225599158   1.0000000
B2   B   0.888898593473492   0.111128336386261   0.125074943984348   1.0000000
B2   B   0.222243908561263   0.777743031160195   0.624927238313742   1.0000000
B2   B   0.055614165253088   0.277812435484474   0.624884029287417   1.0000000
B2   B   0.389039071937431   0.278078143874870   0.624844969969178   1.0000000
B2   B   0.555546241896641   0.777668684406291   0.624848505046691   1.0000000
B2   B   0.888766462963459   0.777706344389532   0.624888577859442   1.0000000
B2   B   0.722198270231387   0.277812435484474   0.624884029287417   1.0000000
B2   B   0.055499122598932   0.777743031160195   0.125072761686258   1.0000000
B2   B   0.388939881426066   0.777706344389532   0.125111422140558   1.0000000
B2   B   0.222354345053967   0.277962038353659   0.125149272487672   1.0000000
B2   B   0.722122442509651   0.777668684406291   0.125151494953309   1.0000000
B2   B   0.555607693299692   0.277962038353659   0.125149272487672   1.0000000
B2   B   0.888889206855426   0.277778413710860   0.125082739979573   1.0000000
B2   B   0.055586967850720   0.444400847546607   0.624886983569733   1.0000000
B2   B   0.222256455360641   0.944512910721283   0.624935962044674   1.0000000
B2   B   0.555578499384643   0.944433977620001   0.624921676945872   1.0000000
B2   B   0.388974412739463   0.444422696804094   0.623973726889009   1.0000000
B2   B   0.888855478235358   0.944433977620001   0.624921676945872   1.0000000
B2   B   0.055549962188390   0.944486171395205   0.125069955927834   1.0000000
B2   B   0.722037051823624   0.444389511434885   0.624822181935232   1.0000000
B2   B   0.388936209206814   0.944486171395205   0.125069955927834   1.0000000
B2   B   0.222352459611262   0.444389511434885   0.125177818064768   1.0000000
B2   B   0.222293460640593   0.611014974653547   0.125141771826515   1.0000000
B2   B   0.555448284064630   0.444422696804094   0.126026273110991   1.0000000
B2   B   0.722205970118999   0.944411940237998   0.125085387805215   1.0000000
B2   B   0.888813879695887   0.444400847546607   0.125113016430268   1.0000000
B2   B   0.055521239932240   0.611042479864480   0.624917583822605   1.0000000
B2   B   0.222312578453524   0.111289288654744   0.624875366941263   1.0000000
B2   B   0.721976568575477   0.610958272102185   0.624791225599158   1.0000000
B2   B   0.555595147002708   0.111195893381563   0.624906336825266   1.0000000
B2   B   0.888898593473492   0.111128336386261   0.624925056015652   1.0000000


