data_1
_audit_creation_method   'vasp2cif'
_cell_length_a    17.52789999999977
_cell_length_b    17.52789999999977
_cell_length_c    15.0
_cell_angle_alpha    90.0
_cell_angle_beta    90.0
_cell_angle_gamma    119.99999999999916

_symmetry_space_group_name_H-M    'P 1'
loop_
_atom_site_label
_atom_site_type_symbol
_atom_site_fract_x
_atom_site_fract_y
_atom_site_fract_z
_atom_site_occupancy
B2   B   0.904594134942785   0.951871039535520   0.116838218892613   1.0000000
B2   B   0.904643374488624   0.094791162317526   0.119159289456966   1.0000000
B2   B   0.904711589434174   0.237747166216569   0.119288329511033   1.0000000
B2   B   0.904793607769906   0.380697200421543   0.117396484183532   1.0000000
B2   B   0.904648651627246   0.523548706949608   0.114863666926214   1.0000000
B2   B   0.904578647596246   0.666287245233229   0.112785217447165   1.0000000
B2   B   0.904264018318724   0.808782403831096   0.113879607299412   1.0000000
B2   B   0.047468673240330   0.952029376629553   0.117775766957213   1.0000000
B2   B   0.047548939435228   0.094866036083637   0.116879045291550   1.0000000
B2   B   0.047554810701610   0.237775312742133   0.116619224180550   1.0000000
B2   B   0.047536513217122   0.380730328061559   0.117348536925059   1.0000000
B2   B   0.047488735316755   0.523617567515100   0.118709425992117   1.0000000
B2   B   0.047435584967851   0.666443066858747   0.119337657464618   1.0000000
B2   B   0.047399518410128   0.809219876108515   0.118818474667523   1.0000000
B2   B   0.190347486966471   0.952179465222386   0.118706098482509   1.0000000
B2   B   0.190662444574181   0.095229568551448   0.114209518825308   1.0000000
B2   B   0.190346110643654   0.237784690928764   0.111208587419371   1.0000000
B2   B   0.190157576043274   0.380717843293828   0.110980198866653   1.0000000
B2   B   0.190299513584120   0.523647135394315   0.114861589067871   1.0000000
B2   B   0.190267074754953   0.666483492248605   0.119408055291710   1.0000000
B2   B   0.190288183087508   0.809326296267079   0.121091843365212   1.0000000
B2   B   0.333157085587220   0.952164902614905   0.118768013031482   1.0000000
B2   B   0.333244917621324   0.094997287652389   0.113451602995826   1.0000000
B2   B   0.333941224041063   0.238373849525719   0.107688584364586   1.0000000
B2   B   0.332516763575090   0.380740153792178   0.103151054314426   1.0000000
B2   B   0.332922572409691   0.523795302677611   0.105161952459904   1.0000000
B2   B   0.332971877839582   0.666515613417671   0.113013730544482   1.0000000
B2   B   0.333097507883290   0.809297581022702   0.118991300745051   1.0000000
B2   B   0.475950725945028   0.952055908564501   0.117902570208051   1.0000000
B2   B   0.476019766883181   0.094992249587076   0.114340175316798   1.0000000
B2   B   0.476022659976032   0.237831050441166   0.107910868610622   1.0000000
B2   B   0.477112686019632   0.381036645001823   0.106377512569255   1.0000000
B2   B   0.474231633909808   0.523919104471772   0.085848645318158   1.0000000
B2   B   0.475532024007009   0.666269803541282   0.104901163424186   1.0000000
B2   B   0.475868637201927   0.809114491667486   0.114246982293832   1.0000000
B2   B   0.618768391053427   0.951896338514950   0.116865800478175   1.0000000
B2   B   0.618846771126078   0.094762662777116   0.116904583742273   1.0000000
B2   B   0.619033945686337   0.237470636131035   0.111361325456987   1.0000000
B2   B   0.619939287110426   0.380172505946472   0.104141031021888   1.0000000
B2   B   0.617902429579098   0.521122549887687   0.089503649467448   1.0000000
B2   B   0.618946072379322   0.666845201338378   0.100672970103110   1.0000000
B2   B   0.618733891033329   0.809146800903858   0.110556924034344   1.0000000
B2   B   0.761689483925912   0.951837656136705   0.116445090989103   1.0000000
B2   B   0.761716368706537   0.094739482320561   0.119136892522547   1.0000000
B2   B   0.761872140335112   0.237675874308334   0.116654555376712   1.0000000
B2   B   0.762188075799769   0.380541985225664   0.111172055467209   1.0000000
B2   B   0.761843196764510   0.523401231402120   0.105445167830900   1.0000000
B2   B   0.761152169183620   0.665442424891741   0.104128557459284   1.0000000
B2   B   0.761717024025503   0.809042257655479   0.110358183596908   1.0000000
Sn2   Sn   0.540758737381886   0.510122657874501   0.936753850752165   1.0000000
N2   N   0.951923449330621   0.903993546046719   0.116684626125504   1.0000000
N2   N   0.952293562655033   0.047122436947965   0.118412290672615   1.0000000
N2   N   0.952409967420440   0.190125454258238   0.119242219778573   1.0000000
N2   N   0.952359365762573   0.333075743017575   0.118799564798625   1.0000000
N2   N   0.952113430520804   0.475944169089501   0.117583065320931   1.0000000
N2   N   0.951906875552612   0.618667157465807   0.116040858398064   1.0000000
N2   N   0.951813760134074   0.761269778952709   0.115391348759455   1.0000000
N2   N   0.095063305392392   0.904500581307027   0.119159263266272   1.0000000
N2   N   0.095450135899037   0.047551773247055   0.116632027171330   1.0000000
N2   N   0.095492113791397   0.190327607335126   0.115119617189945   1.0000000
N2   N   0.095377113197615   0.333149816705600   0.115194527013990   1.0000000
N2   N   0.095255231472711   0.475976765983917   0.117547232315370   1.0000000
N2   N   0.095027933356840   0.618793950207784   0.120032487901675   1.0000000
N2   N   0.094943542862175   0.761625826339516   0.120635922914551   1.0000000
N2   N   0.237987150296841   0.904675030048264   0.120323788487576   1.0000000
N2   N   0.238273197569540   0.047758518136615   0.115542613054576   1.0000000
N2   N   0.239048377402012   0.191203483563324   0.110319009313152   1.0000000
N2   N   0.238392273902296   0.333311766980562   0.108027323048120   1.0000000
N2   N   0.238328940974880   0.475965345758688   0.110346265122079   1.0000000
N2   N   0.238034965174956   0.618765450453988   0.116109526478188   1.0000000
N2   N   0.237942399630630   0.761663401746297   0.120739293235116   1.0000000
N2   N   0.380791344642577   0.904552288326615   0.119293060928936   1.0000000
N2   N   0.380920497334349   0.047714210967815   0.115635032087060   1.0000000
N2   N   0.381368712350225   0.191110497638708   0.109096549458613   1.0000000
N2   N   0.383396979598981   0.335989271281300   0.104447164717500   1.0000000
N2   N   0.381168647812034   0.475526506004757   0.097806948854275   1.0000000
N2   N   0.380831648672003   0.618575813741485   0.106641048984773   1.0000000
N2   N   0.380780519743777   0.761474334710947   0.115695046250570   1.0000000
N2   N   0.523540543696604   0.904195071850834   0.116838789562435   1.0000000
N2   N   0.523604800486479   0.047468308776401   0.116739334790002   1.0000000
N2   N   0.523745993396582   0.190811648622262   0.110499909127784   1.0000000
N2   N   0.524481289162081   0.335057176553368   0.105023284645178   1.0000000
N2   N   0.523732900799993   0.617604389958240   0.097652738210892   1.0000000
N2   N   0.523495161321431   0.760929935519054   0.109691041231363   1.0000000
N2   N   0.666296155079664   0.903955393441721   0.114905512811874   1.0000000
N2   N   0.666397743200626   0.047098662459786   0.118384585999984   1.0000000
N2   N   0.666475470963414   0.190156523092805   0.115165660557191   1.0000000
N2   N   0.666657893229814   0.332941049164206   0.108348984785063   1.0000000
N2   N   0.665316452922922   0.474909643731851   0.099462224560987   1.0000000
N2   N   0.663735432607946   0.616200718724008   0.097103097623446   1.0000000
N2   N   0.666137287410313   0.760906423350538   0.107174144395177   1.0000000
N2   N   0.809117223210509   0.903875820748319   0.114881216673309   1.0000000
N2   N   0.809294238189595   0.046984925643611   0.119176889329558   1.0000000
N2   N   0.809379816533422   0.190078783979335   0.119228131113791   1.0000000
N2   N   0.809419270132440   0.333047538295532   0.115289715435590   1.0000000
N2   N   0.808927964449577   0.475795580475053   0.110412228221654   1.0000000
N2   N   0.808623475561067   0.618202268274503   0.106382650069780   1.0000000
N2   N   0.808276055371476   0.760354287664006   0.109082508194575   1.0000000


