data_1
_audit_creation_method   'vasp2cif'
_cell_length_a    17.52789999999977
_cell_length_b    17.52789999999977
_cell_length_c    15.0
_cell_angle_alpha    90.0
_cell_angle_beta    90.0
_cell_angle_gamma    119.99999999999916

_symmetry_space_group_name_H-M    'P 1'
loop_
_atom_site_label
_atom_site_type_symbol
_atom_site_fract_x
_atom_site_fract_y
_atom_site_fract_z
_atom_site_occupancy
P2   P   0.392015200577096   0.483945114040001   0.111015264609612   1.0000000
B2   B   0.907365171301538   0.952077932100072   0.110716596237247   1.0000000
B2   B   0.908619872156537   0.095502511869728   0.110789703292495   1.0000000
B2   B   0.908834256056164   0.238319693900283   0.110735047274077   1.0000000
B2   B   0.908179698932558   0.381003460634620   0.110671476836226   1.0000000
B2   B   0.906029755120236   0.523488664002684   0.110741823149742   1.0000000
B2   B   0.904367173229177   0.665518606202436   0.110744768001145   1.0000000
B2   B   0.904233930573940   0.807304238303555   0.110679117574559   1.0000000
B2   B   0.048972873719958   0.951568742589376   0.110680430455496   1.0000000
B2   B   0.050608451430080   0.094702820585852   0.110750936271700   1.0000000
B2   B   0.051719768605618   0.238392549863551   0.110793993345548   1.0000000
B2   B   0.050808426397785   0.381740414655175   0.110715715391339   1.0000000
B2   B   0.048060989827317   0.524723347789713   0.110715321968006   1.0000000
B2   B   0.047611489415805   0.667021249025117   0.110750251094068   1.0000000
B2   B   0.047790214507998   0.809034025410866   0.110711348805769   1.0000000
B2   B   0.191609111982615   0.951978274347106   0.110699431823528   1.0000000
B2   B   0.193628439991848   0.094830118217479   0.110696125282035   1.0000000
B2   B   0.193570828830710   0.236219866176677   0.110729399640940   1.0000000
B2   B   0.194406361105310   0.382304835324558   0.110741733172534   1.0000000
B2   B   0.188981050936941   0.526460634513102   0.110689052154259   1.0000000
B2   B   0.190193471086709   0.668848799079381   0.110777850584774   1.0000000
B2   B   0.190788174671531   0.810346685907039   0.110728653738767   1.0000000
B2   B   0.334791307414416   0.952783302422565   0.110742387620358   1.0000000
B2   B   0.335762513752753   0.093327065042961   0.110731136213044   1.0000000
B2   B   0.339896372217109   0.235794922033035   0.110725928148353   1.0000000
B2   B   0.336169258051036   0.366637666156763   0.110918327866435   1.0000000
B2   B   0.328149294656941   0.536086756413318   0.110576903735410   1.0000000
B2   B   0.332940235890552   0.673789454239086   0.110748694391438   1.0000000
B2   B   0.334078939565057   0.812770098295260   0.110824325351257   1.0000000
B2   B   0.478599701257071   0.954003216351632   0.110796126076281   1.0000000
B2   B   0.479140579120061   0.094431855789187   0.110799923806340   1.0000000
B2   B   0.480230023592378   0.235348374968879   0.110736387758078   1.0000000
B2   B   0.493643187026264   0.386185179470740   0.110674935297001   1.0000000
B2   B   0.477023951626202   0.675205766582441   0.110712378034092   1.0000000
B2   B   0.478285519874943   0.814116980662187   0.110755600582605   1.0000000
B2   B   0.622456860233625   0.953792426901506   0.110728377574804   1.0000000
B2   B   0.622672285281014   0.095098606576942   0.110737756075554   1.0000000
B2   B   0.623067467382409   0.236278532162462   0.110737664083974   1.0000000
B2   B   0.624410810174778   0.377409471539916   0.110709646206513   1.0000000
B2   B   0.609752015857940   0.507446301801139   0.110658083257862   1.0000000
B2   B   0.624136933693751   0.668973486765118   0.110788471618530   1.0000000
B2   B   0.622435680307677   0.811934936175297   0.110726907533784   1.0000000
B2   B   0.765531813752009   0.953061321578277   0.110752027691578   1.0000000
B2   B   0.765908811911748   0.095565817155445   0.110719868030911   1.0000000
B2   B   0.766044900379650   0.237736500724570   0.110693574450133   1.0000000
B2   B   0.766051018013382   0.380037368168211   0.110701836798202   1.0000000
B2   B   0.763120153622835   0.521929835006368   0.110732002415250   1.0000000
B2   B   0.758022686751831   0.661076794728209   0.110675453282579   1.0000000
B2   B   0.764695220390779   0.809676498843870   0.110664460390114   1.0000000
N2   N   0.953307427053900   0.903239273086858   0.110667158614054   1.0000000
N2   N   0.955604046456425   0.047444922068907   0.110757145936924   1.0000000
N2   N   0.956805064168463   0.191003850335857   0.110776983712790   1.0000000
N2   N   0.956247850356123   0.333627752078135   0.110684144772958   1.0000000
N2   N   0.953810212622477   0.476173390017773   0.110683413138832   1.0000000
N2   N   0.952533817888098   0.618593882218059   0.110747950111125   1.0000000
N2   N   0.952271814513241   0.760618773533775   0.110701874992858   1.0000000
N2   N   0.096307751170562   0.904214589581891   0.110671874469911   1.0000000
N2   N   0.098096602080317   0.047355599484888   0.110679259137296   1.0000000
N2   N   0.099038298429656   0.190325772006684   0.110738590205346   1.0000000
N2   N   0.099964310812923   0.334488660803958   0.110751049344418   1.0000000
N2   N   0.095616127615162   0.477147512393075   0.110697270981110   1.0000000
N2   N   0.095506325220609   0.619871751631232   0.110735826557225   1.0000000
N2   N   0.095605281748774   0.762025756001714   0.110707019290056   1.0000000
N2   N   0.239446765809628   0.905130417671246   0.110686786700872   1.0000000
N2   N   0.240544488819529   0.047101825788854   0.110679713534543   1.0000000
N2   N   0.243464301974185   0.190936474846298   0.110697783688274   1.0000000
N2   N   0.242736979321251   0.332528067422087   0.110764831818144   1.0000000
N2   N   0.236714541159741   0.479014211718529   0.110612862577174   1.0000000
N2   N   0.238293353618683   0.621898409395131   0.110739427323092   1.0000000
N2   N   0.238873768637009   0.763623215725986   0.110776964135531   1.0000000
N2   N   0.383123717376707   0.906701139929015   0.110781257390266   1.0000000
N2   N   0.383730198903141   0.047127930210244   0.110748221655215   1.0000000
N2   N   0.385230631384355   0.187915832394836   0.110708064717732   1.0000000
N2   N   0.392543510698409   0.331885027559443   0.110741327470369   1.0000000
N2   N   0.382026322415211   0.628185582118724   0.110634740828358   1.0000000
N2   N   0.382719784369952   0.766916921658949   0.110795788360539   1.0000000
N2   N   0.526981450448597   0.907579144525637   0.110744433382224   1.0000000
N2   N   0.527300549939640   0.048118234750668   0.110777445338668   1.0000000
N2   N   0.527867631940580   0.188939520489944   0.110754579096249   1.0000000
N2   N   0.529667123896119   0.330180043831358   0.110691931214124   1.0000000
N2   N   0.492673798830214   0.545855758386036   0.111386161852352   1.0000000
N2   N   0.528302744932570   0.630526053285388   0.110949731602578   1.0000000
N2   N   0.526691701701418   0.767414338035135   0.110685620884226   1.0000000
N2   N   0.670078365318954   0.906021812962913   0.110723382917768   1.0000000
N2   N   0.670625629066042   0.048171074131616   0.110696145979742   1.0000000
N2   N   0.670890761780809   0.189724180986394   0.110706750894389   1.0000000
N2   N   0.671374862499951   0.331096470816807   0.110698029206126   1.0000000
N2   N   0.667992520268964   0.472368491477962   0.110696675865010   1.0000000
N2   N   0.659428482754076   0.609631337379234   0.110674217191141   1.0000000
N2   N   0.669469599439134   0.762932220729167   0.110675026483995   1.0000000
N2   N   0.812213979741215   0.904620843271426   0.110699032187698   1.0000000
N2   N   0.813425066866803   0.048001183345375   0.110751185116074   1.0000000
N2   N   0.813836389596945   0.190560705283884   0.110697079672247   1.0000000
N2   N   0.813521259387301   0.332812010271496   0.110659298363800   1.0000000
N2   N   0.811312680338476   0.475084644023087   0.110715821880906   1.0000000
N2   N   0.808545412656264   0.616718607928576   0.110703777788938   1.0000000
N2   N   0.807875423626713   0.758117660421996   0.110651246830384   1.0000000


