data_1
_audit_creation_method   'vasp2cif'
_cell_length_a    14.93631414619966
_cell_length_b    14.936314146199727
_cell_length_c    13.341276283792837
_cell_angle_alpha    90.0
_cell_angle_beta    90.0
_cell_angle_gamma    119.99999999999984

_symmetry_space_group_name_H-M    'P 1'
loop_
_atom_site_label
_atom_site_type_symbol
_atom_site_fract_x
_atom_site_fract_y
_atom_site_fract_z
_atom_site_occupancy
In2   In   0.486614662108147   0.409973997720737   0.375000000000000   1.0000000
N2   N   0.111211390211709   0.055592699798481   0.124860689000399   1.0000000
N2   N   0.611210788365646   0.555635678073836   0.126421418334476   1.0000000
N2   N   0.444525322863874   0.055559190165191   0.124887070414432   1.0000000
N2   N   0.944533294367062   0.555602154278516   0.125143899873144   1.0000000
N2   N   0.777863423913859   0.055598378623598   0.124922303394258   1.0000000
N2   N   0.111193775213677   0.722263554273500   0.624967147385975   1.0000000
N2   N   0.444525322863874   0.722299466032018   0.625112929585571   1.0000000
N2   N   0.277892277814560   0.222261227257099   0.624291709481793   1.0000000
N2   N   0.777867962180603   0.722267245453534   0.624747390151903   1.0000000
N2   N   0.611183859172255   0.222228144221434   0.624859448397800   1.0000000
N2   N   0.944547267403312   0.222278867132536   0.625096165717742   1.0000000
N2   N   0.277858331550462   0.722274489722745   0.124932638472591   1.0000000
N2   N   0.111234849227107   0.222284091280216   0.124994664057211   1.0000000
N2   N   0.444552842899040   0.222232140417087   0.125850560410749   1.0000000
N2   N   0.611183859172255   0.722289048284151   0.125140551602201   1.0000000
N2   N   0.944533294367062   0.722264473421887   0.125143899873144   1.0000000
N2   N   0.777860965887296   0.222263497836878   0.124960792963693   1.0000000
N2   N   0.111197432177336   0.888919646544489   0.625043365419476   1.0000000
N2   N   0.444520159475498   0.888926746404411   0.625114370672999   1.0000000
N2   N   0.277892277814560   0.388964383890789   0.624291709481793   1.0000000
N2   N   0.611210788365646   0.388908443625137   0.623578581665520   1.0000000
N2   N   0.777860965887296   0.888930801383749   0.625039207036303   1.0000000
N2   N   0.944537197177823   0.388940597470603   0.625048316362854   1.0000000
N2   N   0.111211390211709   0.388952023746557   0.124860689000399   1.0000000
N2   N   0.277858331550462   0.888917175161046   0.124932638472591   1.0000000
N2   N   0.611188881338970   0.888942320993301   0.124895462014095   1.0000000
N2   N   0.444673943406625   0.389003638369979   0.130299810417877   1.0000000
N2   N   0.944537197177823   0.888929933040552   0.124951683637145   1.0000000
N2   N   0.777867962180603   0.388934050060399   0.125252609848101   1.0000000
N2   N   0.277865813988048   0.555629218967639   0.624973310901474   1.0000000
N2   N   0.111211390211709   0.055592699798481   0.625139310999600   1.0000000
N2   N   0.611210788365646   0.555635678073836   0.623578581665520   1.0000000
N2   N   0.444525322863874   0.055559190165191   0.625112929585571   1.0000000
N2   N   0.944533294367062   0.555602154278516   0.624856100126861   1.0000000
N2   N   0.111197432177336   0.555611118966175   0.124956634580525   1.0000000
N2   N   0.777863423913859   0.055598378623598   0.625077696605742   1.0000000
N2   N   0.277865813988048   0.055569928353743   0.125026689098525   1.0000000
N2   N   0.444552842899040   0.555654035815285   0.125850560410749   1.0000000
N2   N   0.777857060547831   0.555595196940584   0.125615419488580   1.0000000
N2   N   0.611188881338970   0.055579893678997   0.124895462014095   1.0000000
N2   N   0.444552842899040   0.555654035815285   0.624149439589253   1.0000000
N2   N   0.944547267403312   0.055601733604110   0.124903834282260   1.0000000
N2   N   0.277858331550462   0.722274489722745   0.625067361527403   1.0000000
N2   N   0.111234849227107   0.222284091280216   0.625005335942792   1.0000000
N2   N   0.444552842899040   0.222232140417087   0.624149439589253   1.0000000
N2   N   0.611183859172255   0.722289048284151   0.624859448397800   1.0000000
N2   N   0.944533294367062   0.722264473421887   0.624856100126861   1.0000000
N2   N   0.777860965887296   0.222263497836878   0.625039207036303   1.0000000
N2   N   0.111193775213677   0.722263554273500   0.125032852614026   1.0000000
N2   N   0.444525322863874   0.722299466032018   0.124887070414432   1.0000000
N2   N   0.277892277814560   0.222261227257099   0.125708290518206   1.0000000
N2   N   0.777867962180603   0.722267245453534   0.125252609848101   1.0000000
N2   N   0.611183859172255   0.222228144221433   0.125140551602201   1.0000000
N2   N   0.944547267403312   0.222278867132536   0.124903834282260   1.0000000
N2   N   0.111211390211709   0.388952023746557   0.625139310999600   1.0000000
N2   N   0.277858331550462   0.888917175161046   0.625067361527403   1.0000000
N2   N   0.611188881338970   0.888942320993301   0.625104537985900   1.0000000
N2   N   0.444673943406625   0.389003638369979   0.619700189582124   1.0000000
N2   N   0.944537197177823   0.888929933040552   0.625048316362854   1.0000000
N2   N   0.111197432177336   0.888919646544489   0.124956634580525   1.0000000
N2   N   0.777867962180603   0.388934050060399   0.624747390151903   1.0000000
N2   N   0.444520159475498   0.888926746404411   0.124885629326996   1.0000000
N2   N   0.277892277814560   0.388964383890789   0.125708290518206   1.0000000
N2   N   0.277865813988048   0.555629218967639   0.125026689098525   1.0000000
N2   N   0.611210788365646   0.388908443625137   0.126421418334476   1.0000000
N2   N   0.777860965887296   0.888930801383749   0.124960792963693   1.0000000
N2   N   0.944537197177823   0.388940597470603   0.124951683637145   1.0000000
N2   N   0.111197432177336   0.555611118966175   0.625043365419476   1.0000000
N2   N   0.277865813988048   0.055569928353743   0.624973310901474   1.0000000
N2   N   0.777857060547831   0.555595196940584   0.624384580511418   1.0000000
N2   N   0.611188881338970   0.055579893678997   0.625104537985900   1.0000000
N2   N   0.944547267403312   0.055601733604110   0.625096165717742   1.0000000
N2   N   0.055717165942249   0.111235887607757   0.375000000000000   1.0000000
N2   N   0.554461960669085   0.615774713750483   0.375000000000000   1.0000000
N2   N   0.386425356039189   0.103429585987503   0.375000000000000   1.0000000
N2   N   0.887091247886670   0.610212290610006   0.375000000000000   1.0000000
N2   N   0.722465707975948   0.110612589648367   0.375000000000000   1.0000000
N2   N   0.055570753862388   0.777787419115807   0.875000000000000   1.0000000
N2   N   0.388902755442258   0.777783225952253   0.875000000000000   1.0000000
N2   N   0.222240849500613   0.277787091416975   0.875000000000000   1.0000000
N2   N   0.722239396404561   0.777786107836327   0.875000000000000   1.0000000
N2   N   0.555572478476873   0.277783595197458   0.875000000000000   1.0000000
N2   N   0.888908677494537   0.277782139655404   0.875000000000000   1.0000000
N2   N   0.219836668979047   0.776585001156191   0.375000000000000   1.0000000
N2   N   0.055717165942249   0.277814611667829   0.375000000000000   1.0000000
N2   N   0.383793233263551   0.262209271635426   0.375000000000000   1.0000000
N2   N   0.554998526660555   0.780141775827587   0.375000000000000   1.0000000
N2   N   0.888358980961327   0.778016889182796   0.375000000000000   1.0000000
N2   N   0.722383903474384   0.276314446040895   0.375000000000000   1.0000000
N2   N   0.055571004549923   0.944455747562850   0.875000000000000   1.0000000
N2   N   0.388902755442258   0.944452862823339   0.875000000000000   1.0000000
N2   N   0.222230117068143   0.444445993149462   0.875000000000000   1.0000000
N2   N   0.555557492712456   0.444445413022892   0.875000000000000   1.0000000
N2   N   0.722243790792195   0.944456298371506   0.875000000000000   1.0000000
N2   N   0.888915985420930   0.444451987992795   0.875000000000000   1.0000000
N2   N   0.054067509173423   0.444241722428114   0.375000000000000   1.0000000
N2   N   0.219668493492054   0.941566102997412   0.375000000000000   1.0000000
N2   N   0.555054647837989   0.944193990585662   0.375000000000000   1.0000000
N2   N   0.383793233263551   0.454917294961461   0.375000000000000   1.0000000
N2   N   0.889002305032349   0.945037536902073   0.375000000000000   1.0000000
N2   N   0.722796589742278   0.443628472980417   0.375000000000000   1.0000000
N2   N   0.222237721823329   0.611113149119540   0.875000000000000   1.0000000
N2   N   0.055570012316893   0.111121644995469   0.875000000000000   1.0000000
N2   N   0.555572478476873   0.611122216612759   0.875000000000000   1.0000000
N2   N   0.388910177300568   0.111134679088262   0.875000000000000   1.0000000
N2   N   0.888896160394331   0.611114746863841   0.875000000000000   1.0000000
N2   N   0.053357222757486   0.610329438548966   0.375000000000000   1.0000000
N2   N   0.722243790792195   0.111120825754023   0.875000000000000   1.0000000
N2   N   0.219569745413930   0.107487691731342   0.375000000000000   1.0000000
N2   N   0.386425356039189   0.616329103385029   0.375000000000000   1.0000000
N2   N   0.722796589742278   0.612501450095192   0.375000000000000   1.0000000
N2   N   0.554998526660555   0.108190084166302   0.375000000000000   1.0000000
N2   N   0.388910177300568   0.611108831545643   0.875000000000000   1.0000000
N2   N   0.889254955580211   0.111294144456776   0.375000000000000   1.0000000
N2   N   0.222234998949445   0.777784166141389   0.875000000000000   1.0000000
N2   N   0.055570012316893   0.277781700654759   0.875000000000000   1.0000000
N2   N   0.388905165183974   0.277799131781084   0.875000000000000   1.0000000
N2   N   0.555570890059430   0.777794556734735   0.875000000000000   1.0000000
N2   N   0.888915985420930   0.777797330761473   0.875000000000000   1.0000000
N2   N   0.722239396404561   0.277786621901566   0.875000000000000   1.0000000
N2   N   0.053357222757486   0.776361117541853   0.375000000000000   1.0000000
N2   N   0.387108986256836   0.778746098372612   0.375000000000000   1.0000000
N2   N   0.223302044332783   0.278317688833059   0.375000000000000   1.0000000
N2   N   0.722383903474384   0.779402790766825   0.375000000000000   1.0000000
N2   N   0.554461960669085   0.272020580251932   0.375000000000000   1.0000000
N2   N   0.889002305032349   0.277298101463615   0.375000000000000   1.0000000
N2   N   0.055571004549923   0.444448590320402   0.875000000000000   1.0000000
N2   N   0.222237721823329   0.944457906037122   0.875000000000000   1.0000000
N2   N   0.555571122638504   0.944452227985914   0.875000000000000   1.0000000
N2   N   0.388905165183974   0.444439366736227   0.875000000000000   1.0000000
N2   N   0.888908677494537   0.944459871172465   0.875000000000000   1.0000000
N2   N   0.054067509173423   0.943159120078640   0.375000000000000   1.0000000
N2   N   0.722235273138921   0.444446023285712   0.875000000000000   1.0000000
N2   N   0.387108986256836   0.941696221217558   0.375000000000000   1.0000000
N2   N   0.219569745413930   0.445415387015926   0.375000000000000   1.0000000
N2   N   0.219668493492054   0.611435723827979   0.375000000000000   1.0000000
N2   N   0.722465707975948   0.945186451660917   0.375000000000000   1.0000000
N2   N   0.888358980961327   0.443675425111867   0.375000000000000   1.0000000
N2   N   0.055570753862388   0.611116668079921   0.875000000000000   1.0000000
N2   N   0.222230117068143   0.111117457252017   0.875000000000000   1.0000000
N2   N   0.722235273138921   0.611122583186545   0.875000000000000   1.0000000
N2   N   0.555570890059430   0.111109666658025   0.875000000000000   1.0000000
N2   N   0.888908720023399   0.111121026678370   0.875000000000000   1.0000000
B2   B   0.109479092195062   0.053967218074872   0.375000000000000   1.0000000
B2   B   0.617546759725814   0.571905941337377   0.375000000000000   1.0000000
B2   B   0.443410373622784   0.051011545283138   0.375000000000000   1.0000000
B2   B   0.943222903534113   0.554704274775852   0.375000000000000   1.0000000
B2   B   0.778549994153429   0.055941663743382   0.375000000000000   1.0000000
B2   B   0.111329604296094   0.722331468814711   0.875000000000000   1.0000000
B2   B   0.444358354798769   0.722051621906122   0.875000000000000   1.0000000
B2   B   0.277650680506574   0.222298287894162   0.875000000000000   1.0000000
B2   B   0.777735817524000   0.722374747075097   0.875000000000000   1.0000000
B2   B   0.611316659466216   0.222286122642876   0.875000000000000   1.0000000
B2   B   0.944380262777529   0.222033924260521   0.875000000000000   1.0000000
B2   B   0.275806774928186   0.722130584627484   0.375000000000000   1.0000000
B2   B   0.112021361678063   0.222677347505697   0.375000000000000   1.0000000
B2   B   0.440182011734292   0.211574932788506   0.375000000000000   1.0000000
B2   B   0.611899516978308   0.727584251127126   0.375000000000000   1.0000000
B2   B   0.943222903534113   0.721851962091599   0.375000000000000   1.0000000
B2   B   0.778545728375167   0.221102640949783   0.375000000000000   1.0000000
B2   B   0.111038979836392   0.889008720093526   0.875000000000000   1.0000000
B2   B   0.444644871605951   0.888989102469641   0.875000000000000   1.0000000
B2   B   0.277650680506574   0.388685725945740   0.875000000000000   1.0000000
B2   B   0.611049889772466   0.388944645619362   0.875000000000000   1.0000000
B2   B   0.777730257871671   0.888758482239972   0.875000000000000   1.0000000
B2   B   0.944679131302251   0.388981341307813   0.875000000000000   1.0000000
B2   B   0.109479092195062   0.388845207453518   0.375000000000000   1.0000000
B2   B   0.275806774928186   0.887009523634032   0.375000000000000   1.0000000
B2   B   0.611531902481581   0.890558541361292   0.375000000000000   1.0000000
B2   B   0.943990327905122   0.889260679333044   0.375000000000000   1.0000000
B2   B   0.779004285014507   0.386888780988162   0.375000000000000   1.0000000
B2   B   0.277948449081687   0.555631363144271   0.875000000000000   1.0000000
B2   B   0.111027204906659   0.055382124908549   0.875000000000000   1.0000000
B2   B   0.611049889772466   0.555438577486432   0.875000000000000   1.0000000
B2   B   0.444358354798769   0.055640066225983   0.875000000000000   1.0000000
B2   B   0.944401720847460   0.555655088395243   0.875000000000000   1.0000000
B2   B   0.109056021630430   0.555120033735503   0.375000000000000   1.0000000
B2   B   0.778009940280546   0.055671636806942   0.875000000000000   1.0000000
B2   B   0.275037651788123   0.051784671874766   0.375000000000000   1.0000000
B2   B   0.440182011734292   0.561940412279125   0.375000000000000   1.0000000
B2   B   0.777921106844226   0.555627220088785   0.375000000000000   1.0000000
B2   B   0.611531902481581   0.054306694453619   0.375000000000000   1.0000000
B2   B   0.444329312142534   0.555651026848398   0.875000000000000   1.0000000
B2   B   0.945021775606432   0.056243232356103   0.375000000000000   1.0000000
B2   B   0.277686027942988   0.722316443587745   0.875000000000000   1.0000000
B2   B   0.111292290358810   0.222312811846070   0.875000000000000   1.0000000
B2   B   0.444329312142534   0.222011618627470   0.875000000000000   1.0000000
B2   B   0.611316659466216   0.722363870156674   0.875000000000000   1.0000000
B2   B   0.944401720847460   0.722079965785547   0.875000000000000   1.0000000
B2   B   0.777730257871671   0.222305108965028   0.875000000000000   1.0000000
B2   B   0.109108033540919   0.721220683437123   0.375000000000000   1.0000000
B2   B   0.443410373622784   0.725732161672980   0.375000000000000   1.0000000
B2   B   0.275713422616982   0.218566299669652   0.375000000000000   1.0000000
B2   B   0.779004285014507   0.725448837359671   0.375000000000000   1.0000000
B2   B   0.611899516978308   0.217648599184512   0.375000000000000   1.0000000
B2   B   0.945021775606432   0.222111876583663   0.375000000000000   1.0000000
B2   B   0.111027204906659   0.388978413331439   0.875000000000000   1.0000000
B2   B   0.277686027942988   0.888702917688575   0.875000000000000   1.0000000
B2   B   0.611037881670363   0.889010303120790   0.875000000000000   1.0000000
B2   B   0.444547944757900   0.388940639045615   0.875000000000000   1.0000000
B2   B   0.944679131302251   0.889031123327768   0.875000000000000   1.0000000
B2   B   0.109056021630430   0.887269321228253   0.375000000000000   1.0000000
B2   B   0.777735817524000   0.388694403782230   0.875000000000000   1.0000000
B2   B   0.443712412507204   0.888522872920267   0.375000000000000   1.0000000
B2   B   0.275713422616982   0.390480456280659   0.375000000000000   1.0000000
B2   B   0.275037651788123   0.556586313246696   0.375000000000000   1.0000000
B2   B   0.617546759725814   0.378974151721766   0.375000000000000   1.0000000
B2   B   0.778545728375167   0.890776420758714   0.375000000000000   1.0000000
B2   B   0.943990327905122   0.388062981905402   0.375000000000000   1.0000000
B2   B   0.111038979836392   0.555363593076195   0.875000000000000   1.0000000
B2   B   0.277948449081687   0.055650419270751   0.875000000000000   1.0000000
B2   B   0.778012884541410   0.555673108937373   0.875000000000000   1.0000000
B2   B   0.611037881670363   0.055360911882902   0.875000000000000   1.0000000
B2   B   0.944380262777529   0.055679671850343   0.875000000000000   1.0000000
B2   B   0.055673260458472   0.111173633558944   0.125138991543789   1.0000000
B2   B   0.555525184595122   0.611369636025268   0.125451789962491   1.0000000
B2   B   0.388830911510557   0.110897427257366   0.125227575061428   1.0000000
B2   B   0.889207789869483   0.611270561601410   0.125151604023564   1.0000000
B2   B   0.722310865478103   0.111097965339548   0.125050847851099   1.0000000
B2   B   0.055764161205991   0.777885593039482   0.624842364667524   1.0000000
B2   B   0.388911433032909   0.777855693157584   0.624966166123960   1.0000000
B2   B   0.222233725189361   0.277783529261346   0.624253829464074   1.0000000
B2   B   0.722358101403149   0.777980808169677   0.624999708989388   1.0000000
B2   B   0.555525184595122   0.277488881903199   0.624548210037508   1.0000000
B2   B   0.889047073712618   0.277809283552259   0.624926080159402   1.0000000
B2   B   0.222322843166271   0.777828088249804   0.125079031370689   1.0000000
B2   B   0.055673260458472   0.277832960232863   0.125138991543789   1.0000000
B2   B   0.388659714245911   0.277370346864220   0.127415500464906   1.0000000
B2   B   0.555567246425124   0.777936778296498   0.125006750049795   1.0000000
B2   B   0.889142634132970   0.777966003046858   0.125109535817217   1.0000000
B2   B   0.722358101403149   0.277710626566810   0.125000291010615   1.0000000
B2   B   0.055703309100972   0.944527018322293   0.624972220801375   1.0000000
B2   B   0.388911433032909   0.944389073208664   0.624966166123960   1.0000000
B2   B   0.222247836534707   0.444527268083653   0.624640121588973   1.0000000
B2   B   0.555816964478893   0.444575148906111   0.623671527897673   1.0000000
B2   B   0.722310865478103   0.944546233471889   0.624949152148902   1.0000000
B2   B   0.889142634132970   0.444509964419450   0.624890464182783   1.0000000
B2   B   0.055703309100972   0.444509624112007   0.125027779198623   1.0000000
B2   B   0.222297998188734   0.944436289115540   0.125126392390238   1.0000000
B2   B   0.555586705264685   0.944460019299011   0.124986171686065   1.0000000
B2   B   0.388659714245911   0.444622700715027   0.127415500464906   1.0000000
B2   B   0.889047073712618   0.944571123493696   0.125073919840597   1.0000000
B2   B   0.722557495742576   0.444528293849670   0.125311925806147   1.0000000
B2   B   0.222297998188734   0.611195042406526   0.624873607609761   1.0000000
B2   B   0.055673260458472   0.111173633558944   0.624861008456209   1.0000000
B2   B   0.555525184595122   0.611369636025268   0.624548210037508   1.0000000
B2   B   0.388830911510557   0.110897427257366   0.624772424938576   1.0000000
B2   B   0.889207789869483   0.611270561601410   0.624848395976437   1.0000000
B2   B   0.055764161205991   0.611211901499836   0.125157635332478   1.0000000
B2   B   0.722310865478103   0.111097965339548   0.624949152148902   1.0000000
B2   B   0.222247836534707   0.111053901784390   0.125359878411026   1.0000000
B2   B   0.388830911510557   0.611266817586528   0.125227575061428   1.0000000
B2   B   0.722557495742576   0.611362535226239   0.125311925806147   1.0000000
B2   B   0.555567246425124   0.110963801461960   0.125006750049795   1.0000000
B2   B   0.388830911510557   0.611266817586528   0.624772424938576   1.0000000
B2   B   0.889013203609023   0.111173268471184   0.125051387379845   1.0000000
B2   B   0.222322843166271   0.777828088249804   0.624920968629311   1.0000000
B2   B   0.055673260458472   0.277832960232863   0.624861008456209   1.0000000
B2   B   0.388659714245911   0.277370346864220   0.622584499535095   1.0000000
B2   B   0.555567246425124   0.777936778296498   0.624993249950207   1.0000000
B2   B   0.889142634132970   0.777966003046858   0.624890464182783   1.0000000
B2   B   0.722358101403149   0.277710626566810   0.624999708989388   1.0000000
B2   B   0.055764161205991   0.777885593039482   0.125157635332478   1.0000000
B2   B   0.388911433032909   0.777855693157584   0.125033833876046   1.0000000
B2   B   0.222233725189361   0.277783529261346   0.125746170535926   1.0000000
B2   B   0.722358101403149   0.777980808169677   0.125000291010615   1.0000000
B2   B   0.555525184595122   0.277488881903199   0.125451789962491   1.0000000
B2   B   0.889047073712618   0.277809283552259   0.125073919840597   1.0000000
B2   B   0.055703309100972   0.444509624112007   0.624972220801375   1.0000000
B2   B   0.222297998188734   0.944436289115540   0.624873607609761   1.0000000
B2   B   0.555586705264685   0.944460019299011   0.625013828313936   1.0000000
B2   B   0.388659714245911   0.444622700715027   0.622584499535095   1.0000000
B2   B   0.889047073712618   0.944571123493696   0.624926080159402   1.0000000
B2   B   0.055703309100972   0.944527018322293   0.125027779198623   1.0000000
B2   B   0.722557495742576   0.444528293849670   0.624688074193855   1.0000000
B2   B   0.388911433032909   0.944389073208664   0.125033833876046   1.0000000
B2   B   0.222247836534707   0.444527268083653   0.125359878411026   1.0000000
B2   B   0.222297998188734   0.611195042406526   0.125126392390238   1.0000000
B2   B   0.555816964478893   0.444575148906111   0.126328472102325   1.0000000
B2   B   0.722310865478103   0.944546233471889   0.125050847851099   1.0000000
B2   B   0.889142634132970   0.444509964419450   0.125109535817217   1.0000000
B2   B   0.055764161205991   0.611211901499836   0.624842364667524   1.0000000
B2   B   0.222247836534707   0.111053901784390   0.624640121588973   1.0000000
B2   B   0.722557495742576   0.611362535226239   0.624688074193855   1.0000000
B2   B   0.555567246425124   0.110963801461960   0.624993249950207   1.0000000
B2   B   0.889013203609023   0.111173268471184   0.624948612620156   1.0000000


