data_1
_audit_creation_method   'vasp2cif'
_cell_length_a    14.93631414619966
_cell_length_b    14.936314146199727
_cell_length_c    13.341276283792837
_cell_angle_alpha    90.0
_cell_angle_beta    90.0
_cell_angle_gamma    119.99999999999984

_symmetry_space_group_name_H-M    'P 1'
loop_
_atom_site_label
_atom_site_type_symbol
_atom_site_fract_x
_atom_site_fract_y
_atom_site_fract_z
_atom_site_occupancy
Si2   Si   0.465946938528676   0.399640135931028   0.375000000000000   1.0000000
N2   N   0.111317199220950   0.055642885662480   0.125033808124952   1.0000000
N2   N   0.611297459905642   0.555676133187545   0.129344111206726   1.0000000
N2   N   0.444582696491875   0.055610003506633   0.125272145975392   1.0000000
N2   N   0.944609782860174   0.555647846934645   0.125325110989798   1.0000000
N2   N   0.777938075200338   0.055635704266853   0.124873388617958   1.0000000
N2   N   0.111270597735496   0.722301965534427   0.625048119933001   1.0000000
N2   N   0.444582696491875   0.722306026318623   0.624727854024665   1.0000000
N2   N   0.278024759757250   0.222328670485916   0.622864383075364   1.0000000
N2   N   0.777945485739441   0.722293904281332   0.624011421436085   1.0000000
N2   N   0.611248203483558   0.222288495633541   0.623898371130848   1.0000000
N2   N   0.944645615421937   0.222332005366917   0.625101222662611   1.0000000
N2   N   0.277923668089976   0.722306807175644   0.124907620996514   1.0000000
N2   N   0.111360884419805   0.222347108876590   0.125328443314780   1.0000000
N2   N   0.444609480557644   0.222289837678091   0.127840807309350   1.0000000
N2   N   0.611248203483558   0.722293041183543   0.126101628869199   1.0000000
N2   N   0.944609782860174   0.722295269258818   0.125325110989798   1.0000000
N2   N   0.777935093903002   0.222316873668316   0.125137617554180   1.0000000
N2   N   0.111274886740053   0.888955321080677   0.625038300117686   1.0000000
N2   N   0.444578187962312   0.888955760647874   0.625129066966666   1.0000000
N2   N   0.278024759757250   0.389029422604599   0.622864383075364   1.0000000
N2   N   0.611297459905642   0.388954660051476   0.620655888793103   1.0000000
N2   N   0.777935093903002   0.888951553567989   0.624862382445852   1.0000000
N2   N   0.944626270735186   0.388992438339531   0.624973479822767   1.0000000
N2   N   0.111317199220950   0.389007646891822   0.125033808124952   1.0000000
N2   N   0.277923668089976   0.888950194247539   0.124907620996514   1.0000000
N2   N   0.611246581993039   0.888958021927529   0.124992839184805   1.0000000
N2   N   0.444721129077364   0.389027231205438   0.135042771882725   1.0000000
N2   N   0.944626270735186   0.888967165729003   0.125026520177203   1.0000000
N2   N   0.777945485739441   0.388984914791299   0.125988578563994   1.0000000
N2   N   0.277944519353026   0.555664480270708   0.624541448383598   1.0000000
N2   N   0.111317199220950   0.055642885662480   0.624966191875061   1.0000000
N2   N   0.611297459905642   0.555676133187545   0.620655888793103   1.0000000
N2   N   0.444582696491875   0.055610003506630   0.624727854024665   1.0000000
N2   N   0.944609782860174   0.555647846934645   0.624674889010180   1.0000000
N2   N   0.111274886740053   0.555652898992819   0.124961699882177   1.0000000
N2   N   0.777938075200338   0.055635704266853   0.625126611381952   1.0000000
N2   N   0.277944519353026   0.055613372415653   0.125458551616418   1.0000000
N2   N   0.444609480557644   0.555652976212842   0.127840807309350   1.0000000
N2   N   0.777928572417147   0.555630952875179   0.126809922028577   1.0000000
N2   N   0.611246581993039   0.055621893398871   0.124992839184805   1.0000000
N2   N   0.444609480557644   0.555652976212842   0.622159192690638   1.0000000
N2   N   0.944645615421937   0.055646943388446   0.124898777337369   1.0000000
N2   N   0.277923668089976   0.722306807175644   0.625092379003472   1.0000000
N2   N   0.111360884419805   0.222347108876590   0.624671556685287   1.0000000
N2   N   0.444609480557644   0.222289837678091   0.622159192690638   1.0000000
N2   N   0.611248203483558   0.722293041183543   0.623898371130848   1.0000000
N2   N   0.944609782860174   0.722295269258818   0.624674889010180   1.0000000
N2   N   0.777935093903002   0.222316873668316   0.624862382445852   1.0000000
N2   N   0.111270597735496   0.722301965534427   0.124951880066996   1.0000000
N2   N   0.444582696491875   0.722306026318623   0.125272145975392   1.0000000
N2   N   0.278024759757250   0.222328670485916   0.127135616924746   1.0000000
N2   N   0.777945485739441   0.722293904281332   0.125988578563994   1.0000000
N2   N   0.611248203483558   0.222288495633541   0.126101628869199   1.0000000
N2   N   0.944645615421937   0.222332005366917   0.124898777337369   1.0000000
N2   N   0.111317199220950   0.389007646891822   0.624966191875061   1.0000000
N2   N   0.277923668089976   0.888950194247539   0.625092379003472   1.0000000
N2   N   0.611246581993039   0.888958021927529   0.625007160815136   1.0000000
N2   N   0.444721129077364   0.389027231205438   0.614957228117062   1.0000000
N2   N   0.944626270735186   0.888967165729003   0.624973479822767   1.0000000
N2   N   0.111274886740053   0.888955321080677   0.124961699882177   1.0000000
N2   N   0.777945485739441   0.388984914791299   0.624011421436085   1.0000000
N2   N   0.444578187962312   0.888955760647874   0.124870933033335   1.0000000
N2   N   0.278024759757250   0.389029422604599   0.127135616924746   1.0000000
N2   N   0.277944519353026   0.555664480270708   0.125458551616418   1.0000000
N2   N   0.611297459905642   0.388954660051476   0.129344111206726   1.0000000
N2   N   0.777935093903002   0.888951553567989   0.125137617554180   1.0000000
N2   N   0.944626270735186   0.388992438339531   0.125026520177203   1.0000000
N2   N   0.111274886740053   0.555652898992819   0.625038300117686   1.0000000
N2   N   0.277944519353026   0.055613372415653   0.624541448383598   1.0000000
N2   N   0.777928572417147   0.555630952875179   0.623190077971314   1.0000000
N2   N   0.611246581993039   0.055621893398871   0.625007160815136   1.0000000
N2   N   0.944645615421937   0.055646943388446   0.625101222662611   1.0000000
N2   N   0.057222639996564   0.112028875649508   0.375000000000000   1.0000000
N2   N   0.555469291777114   0.612535016998579   0.375000000000000   1.0000000
N2   N   0.389106445425358   0.108231888777144   0.375000000000000   1.0000000
N2   N   0.889070756214775   0.611202044774189   0.375000000000000   1.0000000
N2   N   0.723723011889539   0.111632935131523   0.375000000000000   1.0000000
N2   N   0.055439868597465   0.777723079772685   0.875000000000000   1.0000000
N2   N   0.388799372443192   0.777728824870342   0.875000000000000   1.0000000
N2   N   0.222113938251944   0.277723635792632   0.875000000000000   1.0000000
N2   N   0.722114817201598   0.777722695739998   0.875000000000000   1.0000000
N2   N   0.555444213377742   0.277731449780440   0.875000000000000   1.0000000
N2   N   0.888782824295286   0.277722796085074   0.875000000000000   1.0000000
N2   N   0.222407284004889   0.777870308669095   0.375000000000000   1.0000000
N2   N   0.057222639996565   0.278527097680356   0.375000000000000   1.0000000
N2   N   0.390240344951200   0.272982667332964   0.375000000000000   1.0000000
N2   N   0.556615329046620   0.779274119683220   0.375000000000000   1.0000000
N2   N   0.889493994695140   0.778142954939821   0.375000000000000   1.0000000
N2   N   0.723420169440530   0.277916980067245   0.375000000000000   1.0000000
N2   N   0.055444062594273   0.944394791055952   0.875000000000000   1.0000000
N2   N   0.388799372443192   0.944403880906030   0.875000000000000   1.0000000
N2   N   0.222115144538095   0.444380725968041   0.875000000000000   1.0000000
N2   N   0.555423638100672   0.444378485717001   0.875000000000000   1.0000000
N2   N   0.722125786154013   0.944396541930210   0.875000000000000   1.0000000
N2   N   0.888775071003152   0.444384037639963   0.875000000000000   1.0000000
N2   N   0.056278843196923   0.444895937625970   0.375000000000000   1.0000000
N2   N   0.222370595290215   0.943921778819506   0.375000000000000   1.0000000
N2   N   0.556727488611147   0.945030410972118   0.375000000000000   1.0000000
N2   N   0.390240344951200   0.450591010951573   0.375000000000000   1.0000000
N2   N   0.890275758946005   0.945367447260477   0.375000000000000   1.0000000
N2   N   0.722422340500780   0.445191354004534   0.375000000000000   1.0000000
N2   N   0.222119781021473   0.611051658371271   0.875000000000000   1.0000000
N2   N   0.055445159356182   0.111058698758050   0.875000000000000   1.0000000
N2   N   0.555444213377742   0.611046096930782   0.875000000000000   1.0000000
N2   N   0.388792887959694   0.111078404645767   0.875000000000000   1.0000000
N2   N   0.888759375982985   0.611046354658192   0.875000000000000   1.0000000
N2   N   0.055701885919815   0.611273899933835   0.375000000000000   1.0000000
N2   N   0.722125786154013   0.111062577557279   0.875000000000000   1.0000000
N2   N   0.223117035469790   0.110930333225329   0.375000000000000   1.0000000
N2   N   0.389106445425358   0.614207889981480   0.375000000000000   1.0000000
N2   N   0.722422340500780   0.610564319829523   0.375000000000000   1.0000000
N2   N   0.556615329046620   0.110674542696766   0.375000000000000   1.0000000
N2   N   0.388792887959694   0.611047816647335   0.875000000000000   1.0000000
N2   N   0.890515834481015   0.111924583907192   0.375000000000000   1.0000000
N2   N   0.222121637654401   0.777727485493898   0.875000000000000   1.0000000
N2   N   0.055445159356182   0.277719793931489   0.875000000000000   1.0000000
N2   N   0.388786385311210   0.277742811114517   0.875000000000000   1.0000000
N2   N   0.555459977822479   0.777725724241920   0.875000000000000   1.0000000
N2   N   0.888775071003152   0.777724366696580   0.875000000000000   1.0000000
N2   N   0.722114817201598   0.277725454794950   0.875000000000000   1.0000000
N2   N   0.055701885919815   0.777761319319264   0.375000000000000   1.0000000
N2   N   0.389450977396867   0.778894680912751   0.375000000000000   1.0000000
N2   N   0.224703513577615   0.279018423455495   0.375000000000000   1.0000000
N2   N   0.723420169440530   0.778836522706731   0.375000000000000   1.0000000
N2   N   0.555469291777114   0.276267608111893   0.375000000000000   1.0000000
N2   N   0.890275758946005   0.278241645019069   0.375000000000000   1.0000000
N2   N   0.055444062594273   0.444382604871625   0.875000000000000   1.0000000
N2   N   0.222119781021473   0.944401455983571   0.875000000000000   1.0000000
N2   N   0.555466803969729   0.944400068651468   0.875000000000000   1.0000000
N2   N   0.388786385311210   0.444376907529968   0.875000000000000   1.0000000
N2   N   0.888782824295286   0.944393361543494   0.875000000000000   1.0000000
N2   N   0.056278843196923   0.944716238904115   0.375000000000000   1.0000000
N2   N   0.722094123002759   0.444379461875098   0.875000000000000   1.0000000
N2   N   0.389450977396867   0.943889629817507   0.375000000000000   1.0000000
N2   N   0.223117035469790   0.445520035577772   0.375000000000000   1.0000000
N2   N   0.222370595290215   0.611782149803945   0.375000000000000   1.0000000
N2   N   0.723723011889539   0.945423410091288   0.375000000000000   1.0000000
N2   N   0.889493994695140   0.444684373088623   0.375000000000000   1.0000000
N2   N   0.055439868597465   0.611050122158095   0.875000000000000   1.0000000
N2   N   0.222115144538095   0.111067751903342   0.875000000000000   1.0000000
N2   N   0.722094123002759   0.611047994460880   0.875000000000000   1.0000000
N2   N   0.555459977822479   0.111067586913889   0.875000000000000   1.0000000
N2   N   0.888787295598242   0.111060314465776   0.875000000000000   1.0000000
B2   B   0.111604606069291   0.055588193653770   0.375000000000000   1.0000000
B2   B   0.617323776020131   0.568409118135029   0.375000000000000   1.0000000
B2   B   0.445376553492855   0.053585062458841   0.375000000000000   1.0000000
B2   B   0.945418024484764   0.555787770393017   0.375000000000000   1.0000000
B2   B   0.779655204461511   0.056494268897403   0.375000000000000   1.0000000
B2   B   0.111018965908001   0.722176149620506   0.875000000000000   1.0000000
B2   B   0.444344718221654   0.722220125061683   0.875000000000000   1.0000000
B2   B   0.277562260690639   0.222097601976870   0.875000000000000   1.0000000
B2   B   0.777735240937107   0.722262061224929   0.875000000000000   1.0000000
B2   B   0.611042559101795   0.222107559341291   0.875000000000000   1.0000000
B2   B   0.944323527779326   0.222146751516777   0.875000000000000   1.0000000
B2   B   0.278130067806357   0.722881791767093   0.375000000000000   1.0000000
B2   B   0.112374284170357   0.222853808751838   0.375000000000000   1.0000000
B2   B   0.443526801161673   0.216034142677308   0.375000000000000   1.0000000
B2   B   0.613443332561372   0.726601919146973   0.375000000000000   1.0000000
B2   B   0.945418024484775   0.722963587425140   0.375000000000000   1.0000000
B2   B   0.779740880027444   0.222180333116842   0.375000000000000   1.0000000
B2   B   0.110998172997803   0.888838005677060   0.875000000000000   1.0000000
B2   B   0.444360356911874   0.888846845122519   0.875000000000000   1.0000000
B2   B   0.277562260690639   0.388797992047180   0.875000000000000   1.0000000
B2   B   0.611044978585620   0.388794296768558   0.875000000000000   1.0000000
B2   B   0.777711280008849   0.888907409657469   0.875000000000000   1.0000000
B2   B   0.944355834100229   0.388810048204283   0.875000000000000   1.0000000
B2   B   0.111604606069291   0.389349745748881   0.375000000000000   1.0000000
B2   B   0.278130067806357   0.888581609372736   0.375000000000000   1.0000000
B2   B   0.612933132105225   0.890675175321156   0.375000000000000   1.0000000
B2   B   0.945580434126809   0.889925635161888   0.375000000000000   1.0000000
B2   B   0.779911891360448   0.388204355759774   0.375000000000000   1.0000000
B2   B   0.277626196222414   0.555506124899956   0.875000000000000   1.0000000
B2   B   0.110949534922425   0.055476938770511   0.875000000000000   1.0000000
B2   B   0.611044978585620   0.555584015150673   0.875000000000000   1.0000000
B2   B   0.444344718221654   0.055457926493346   0.875000000000000   1.0000000
B2   B   0.944381101456223   0.555506471082249   0.875000000000000   1.0000000
B2   B   0.111365030910927   0.555894417388803   0.375000000000000   1.0000000
B2   B   0.777698955935655   0.055516144634465   0.875000000000000   1.0000000
B2   B   0.277440710496240   0.054003813226559   0.375000000000000   1.0000000
B2   B   0.443526801161673   0.560825991817761   0.375000000000000   1.0000000
B2   B   0.780205550536623   0.556769441934908   0.375000000000000   1.0000000
B2   B   0.612933132105225   0.055591290117564   0.375000000000000   1.0000000
B2   B   0.444307284455224   0.555548471437051   0.875000000000000   1.0000000
B2   B   0.946036693067100   0.056606573153837   0.375000000000000   1.0000000
B2   B   0.277672376347404   0.722181483115743   0.875000000000000   1.0000000
B2   B   0.110919628566257   0.222126480949804   0.875000000000000   1.0000000
B2   B   0.444307284455224   0.222092146351466   0.875000000000000   1.0000000
B2   B   0.611042559101795   0.722268333093911   0.875000000000000   1.0000000
B2   B   0.944381101456223   0.722207963707366   0.875000000000000   1.0000000
B2   B   0.777711280008849   0.222137203684784   0.875000000000000   1.0000000
B2   B   0.111481757332139   0.722407545332658   0.375000000000000   1.0000000
B2   B   0.445376553492855   0.725124824367242   0.375000000000000   1.0000000
B2   B   0.277219691041731   0.220905607564569   0.375000000000000   1.0000000
B2   B   0.779911891360448   0.725040868934078   0.375000000000000   1.0000000
B2   B   0.613443332561372   0.220174746747665   0.375000000000000   1.0000000
B2   B   0.946036693067100   0.222763453246648   0.375000000000000   1.0000000
B2   B   0.110949534922425   0.388805929485214   0.875000000000000   1.0000000
B2   B   0.277672376347404   0.888824226565033   0.875000000000000   1.0000000
B2   B   0.611042313566365   0.888887925967118   0.875000000000000   1.0000000
B2   B   0.444260020910973   0.388796677122140   0.875000000000000   1.0000000
B2   B   0.944355834100229   0.888879119229485   0.875000000000000   1.0000000
B2   B   0.111365030910927   0.888803946855327   0.375000000000000   1.0000000
B2   B   0.777735240937107   0.388806513045549   0.875000000000000   1.0000000
B2   B   0.445566770531860   0.889450051932605   0.375000000000000   1.0000000
B2   B   0.277219691041731   0.389647416810444   0.375000000000000   1.0000000
B2   B   0.277440710496240   0.556770230602920   0.375000000000000   1.0000000
B2   B   0.617323776020131   0.382247991218300   0.375000000000000   1.0000000
B2   B   0.779740880027444   0.890893880243920   0.375000000000000   1.0000000
B2   B   0.945580434126809   0.388988132298292   0.375000000000000   1.0000000
B2   B   0.110998172997803   0.555493500653982   0.875000000000000   1.0000000
B2   B   0.277626196222414   0.055453404655773   0.875000000000000   1.0000000
B2   B   0.777735821110738   0.555534577222001   0.875000000000000   1.0000000
B2   B   0.611042313566365   0.055487720932603   0.875000000000000   1.0000000
B2   B   0.944323527779326   0.055510109595943   0.875000000000000   1.0000000
B2   B   0.055682256350329   0.111139953755034   0.124667714819286   1.0000000
B2   B   0.555695753834545   0.611504859782471   0.126778133798781   1.0000000
B2   B   0.388860165217768   0.110805547831245   0.125369791683713   1.0000000
B2   B   0.889357703132059   0.611345518232588   0.125106521128565   1.0000000
B2   B   0.722385896551836   0.111134113521982   0.124591813964366   1.0000000
B2   B   0.055832217487487   0.777893428932290   0.625358504430385   1.0000000
B2   B   0.388940239931846   0.777906608967422   0.625451299744521   1.0000000
B2   B   0.222197347253934   0.277765340293567   0.623987669731026   1.0000000
B2   B   0.722496307019329   0.778066583133969   0.624908167941858   1.0000000
B2   B   0.555695753834545   0.277524227385362   0.623221866201240   1.0000000
B2   B   0.889120884985812   0.277863569561638   0.625394583378891   1.0000000
B2   B   0.222357817587866   0.777845575460686   0.124521277958574   1.0000000
B2   B   0.055682256350329   0.277875635928605   0.124667714819286   1.0000000
B2   B   0.388706974923765   0.277297708160504   0.129018291679248   1.0000000
B2   B   0.555646702672521   0.778021350207932   0.124873771314795   1.0000000
B2   B   0.889268604269376   0.778011692458055   0.124857668781424   1.0000000
B2   B   0.722496307019329   0.277763057218631   0.125091832058137   1.0000000
B2   B   0.055746269638511   0.944492842435926   0.625428178289291   1.0000000
B2   B   0.388940239931846   0.944366964298107   0.625451299744521   1.0000000
B2   B   0.222232974578874   0.444627851799973   0.624803969083206   1.0000000
B2   B   0.556086745869852   0.444710039601591   0.620360709950020   1.0000000
B2   B   0.722385896551836   0.944585116363282   0.625408186035619   1.0000000
B2   B   0.889268604269376   0.444590245144787   0.625142331218613   1.0000000
B2   B   0.055746269638511   0.444586760535842   0.124571821710847   1.0000000
B2   B   0.222307669917559   0.944356334969404   0.124636446214533   1.0000000
B2   B   0.555646314801007   0.944489824067185   0.124506609090677   1.0000000
B2   B   0.388706974923765   0.444742600096643   0.129018291679248   1.0000000
B2   B   0.889120884985812   0.944590648757513   0.124605416621033   1.0000000
B2   B   0.722751168780909   0.444606524798207   0.126313181702326   1.0000000
B2   B   0.222307669917559   0.611284668281500   0.625363553785435   1.0000000
B2   B   0.055682256350329   0.111139953755034   0.625332285180566   1.0000000
B2   B   0.555695753834545   0.611504859782472   0.623221866201240   1.0000000
B2   B   0.388860165217768   0.110805547831245   0.624630208316184   1.0000000
B2   B   0.889357703132059   0.611345518232588   0.624893478871503   1.0000000
B2   B   0.055832217487487   0.611272121888412   0.124641495569520   1.0000000
B2   B   0.722385896551836   0.111134113521982   0.625408186035619   1.0000000
B2   B   0.222232974578874   0.110938456112255   0.125196030916789   1.0000000
B2   B   0.388860165217768   0.611387950719834   0.125369791683713   1.0000000
B2   B   0.722751168780909   0.611477977316017   0.126313181702326   1.0000000
B2   B   0.555646702672521   0.110958685797871   0.124873771314795   1.0000000
B2   B   0.388860165217768   0.611387950719834   0.624630208316184   1.0000000
B2   B   0.889064768070740   0.111199050702030   0.124527710211385   1.0000000
B2   B   0.222357817587866   0.777845575460686   0.625478722041442   1.0000000
B2   B   0.055682256350329   0.277875635928605   0.625332285180566   1.0000000
B2   B   0.388706974923765   0.277297708160504   0.620981708320764   1.0000000
B2   B   0.555646702672521   0.778021350207932   0.625126228685213   1.0000000
B2   B   0.889268604269376   0.778011692458055   0.625142331218613   1.0000000
B2   B   0.722496307019329   0.277763057218631   0.624908167941858   1.0000000
B2   B   0.055832217487487   0.777893428932290   0.124641495569520   1.0000000
B2   B   0.388940239931846   0.777906608967422   0.124548700255356   1.0000000
B2   B   0.222197347253934   0.277765340293579   0.126012330268878   1.0000000
B2   B   0.722496307019329   0.778066583133969   0.125091832058137   1.0000000
B2   B   0.555695753834545   0.277524227385362   0.126778133798781   1.0000000
B2   B   0.889120884985812   0.277863569561638   0.124605416621033   1.0000000
B2   B   0.055746269638511   0.444586760535842   0.625428178289291   1.0000000
B2   B   0.222307669917559   0.944356334969404   0.625363553785435   1.0000000
B2   B   0.555646314801007   0.944489824067185   0.625493390909355   1.0000000
B2   B   0.388706974923765   0.444742600096643   0.620981708320764   1.0000000
B2   B   0.889120884985812   0.944590648757513   0.625394583378891   1.0000000
B2   B   0.055746269638511   0.944492842435926   0.124571821710847   1.0000000
B2   B   0.722751168780909   0.444606524798207   0.623686818297790   1.0000000
B2   B   0.388940239931846   0.944366964298107   0.124548700255356   1.0000000
B2   B   0.222232974578874   0.444627851799973   0.125196030916789   1.0000000
B2   B   0.222307669917559   0.611284668281500   0.124636446214533   1.0000000
B2   B   0.556086745869852   0.444710039601591   0.129639290049819   1.0000000
B2   B   0.722385896551836   0.944585116363282   0.124591813964366   1.0000000
B2   B   0.889268604269376   0.444590245144787   0.124857668781424   1.0000000
B2   B   0.055832217487485   0.611272121888412   0.625358504430385   1.0000000
B2   B   0.222232974578874   0.110938456112255   0.624803969083206   1.0000000
B2   B   0.722751168780909   0.611477977316017   0.623686818297790   1.0000000
B2   B   0.555646702672521   0.110958685797871   0.625126228685213   1.0000000
B2   B   0.889064768070740   0.111199050702030   0.625472289788699   1.0000000


