data_1
_audit_creation_method   'vasp2cif'
_cell_length_a    17.52789999999977
_cell_length_b    17.52789999999977
_cell_length_c    15.0
_cell_angle_alpha    90.0
_cell_angle_beta    90.0
_cell_angle_gamma    119.99999999999916

_symmetry_space_group_name_H-M    'P 1'
loop_
_atom_site_label
_atom_site_type_symbol
_atom_site_fract_x
_atom_site_fract_y
_atom_site_fract_z
_atom_site_occupancy
B2   B   0.905731024834237   0.953214010161092   0.111017361286906   1.0000000
B2   B   0.904677445242842   0.095324301449158   0.111033430508665   1.0000000
B2   B   0.904329028568554   0.237882281705953   0.111041325258466   1.0000000
B2   B   0.904674966816850   0.380787162249532   0.110970760805633   1.0000000
B2   B   0.905726859400506   0.523938674103985   0.111017176751899   1.0000000
B2   B   0.905423508448300   0.666991919222128   0.111058246469941   1.0000000
B2   B   0.905428496351074   0.809868824270801   0.111036472588004   1.0000000
B2   B   0.047740065972019   0.952261657392974   0.110999905853533   1.0000000
B2   B   0.046787705180912   0.094270695637772   0.111017360813904   1.0000000
B2   B   0.046185673807132   0.237102108973079   0.110972573217865   1.0000000
B2   B   0.046171511264962   0.380503299024862   0.110968408907990   1.0000000
B2   B   0.046787692467077   0.523945225752328   0.110993111939162   1.0000000
B2   B   0.047747579566829   0.666924837102072   0.111032003665826   1.0000000
B2   B   0.047860101024515   0.809654945832826   0.110987851378913   1.0000000
B2   B   0.190346803860178   0.952141662068493   0.110987849852916   1.0000000
B2   B   0.190132876765200   0.094573216356934   0.111036468464007   1.0000000
B2   B   0.187365560979587   0.234975707527472   0.110943016814197   1.0000000
B2   B   0.187180464556807   0.379295678359681   0.110919336620954   1.0000000
B2   B   0.187361097281586   0.523797596775954   0.110975227524761   1.0000000
B2   B   0.190128023147187   0.666987243085268   0.111054051612566   1.0000000
B2   B   0.190357361115362   0.809644333425640   0.110995550931158   1.0000000
B2   B   0.333076898602918   0.952254144267182   0.111032006079824   1.0000000
B2   B   0.333009794754864   0.094578231471703   0.111058242092941   1.0000000
B2   B   0.332924253085648   0.237269932128198   0.111018533656158   1.0000000
B2   B   0.326136616292900   0.375003555488990   0.111178435910162   1.0000000
B2   B   0.326146122453534   0.522592907876746   0.111167528145757   1.0000000
B2   B   0.332907310575273   0.667094392198720   0.111053641260517   1.0000000
B2   B   0.333014410234738   0.809873605695809   0.111054055145569   1.0000000
B2   B   0.476056461666680   0.953213888462916   0.110993117250164   1.0000000
B2   B   0.476063067402018   0.094274963275492   0.111017185444899   1.0000000
B2   B   0.476194543965321   0.234980982330394   0.110914732856822   1.0000000
B2   B   0.477411983144697   0.374972161215037   0.111198692781964   1.0000000
B2   B   0.477408876556252   0.673855734886477   0.111167528659763   1.0000000
B2   B   0.476204119014045   0.812640589786416   0.110975233261761   1.0000000
B2   B   0.619498439947149   0.953830173152040   0.110968411014991   1.0000000
B2   B   0.619214508098471   0.095326720465154   0.110970761891634   1.0000000
B2   B   0.619510088745542   0.237108716100388   0.110958683124290   1.0000000
B2   B   0.620688653516630   0.379313080692372   0.110877324418685   1.0000000
B2   B   0.625029407754966   0.522589684058311   0.111198687523962   1.0000000
B2   B   0.624998093966001   0.673865107423098   0.111178435623159   1.0000000
B2   B   0.620706064800315   0.812821304846191   0.110919332272951   1.0000000
B2   B   0.762899631554920   0.953816045719875   0.110972575443861   1.0000000
B2   B   0.762119414055045   0.095672647965434   0.111041327661465   1.0000000
B2   B   0.762123628049069   0.237878077130930   0.111046758800228   1.0000000
B2   B   0.762893106283613   0.380491666685456   0.110958674717290   1.0000000
B2   B   0.765020769845600   0.523807138841690   0.110914724892825   1.0000000
B2   B   0.762731726642804   0.667077427459348   0.111018542284157   1.0000000
B2   B   0.765025963896531   0.812636155702410   0.110943019288194   1.0000000
Ge2   Ge   0.476231054743750   0.523770600803245   0.111523534554832   1.0000000
N2   N   0.952844359105029   0.905037705407542   0.111008925173996   1.0000000
N2   N   0.952299917799458   0.047701799510534   0.110998027860258   1.0000000
N2   N   0.951569498482918   0.190091564865099   0.110978704014301   1.0000000
N2   N   0.951562069116839   0.332908894439599   0.110942450931463   1.0000000
N2   N   0.952301322850070   0.476028799641848   0.110944764783693   1.0000000
N2   N   0.952843354014004   0.619239092938693   0.111039751716400   1.0000000
N2   N   0.952945624472557   0.762191284006603   0.111038185130201   1.0000000
N2   N   0.095316206763242   0.904685545704765   0.110940631117356   1.0000000
N2   N   0.094964000030459   0.047157359709974   0.111008931670992   1.0000000
N2   N   0.093002267509746   0.188611385263026   0.110965177770690   1.0000000
N2   N   0.092723281523236   0.332076831303937   0.110936661760347   1.0000000
N2   N   0.092996723339756   0.475812175707116   0.110968477685465   1.0000000
N2   N   0.094962600341098   0.619240871768602   0.111014860888148   1.0000000
N2   N   0.095321884818870   0.762077574035650   0.110972518352590   1.0000000
N2   N   0.237924138125358   0.904679825939131   0.110972519244591   1.0000000
N2   N   0.237810445370400   0.047056144491441   0.111038177707204   1.0000000
N2   N   0.237238645092604   0.189337641759477   0.110983444066926   1.0000000
N2   N   0.232206427732791   0.328660724403420   0.110882738537571   1.0000000
N2   N   0.232209158002163   0.474967547700143   0.110896016783314   1.0000000
N2   N   0.237225334938028   0.619323970533655   0.111017523501783   1.0000000
N2   N   0.237812927653367   0.762188706541625   0.111045128394532   1.0000000
N2   N   0.380760799334403   0.905039025441901   0.111014865038151   1.0000000
N2   N   0.380762634248301   0.047158396905989   0.111039759464400   1.0000000
N2   N   0.380676290840871   0.189340444529506   0.110983148855790   1.0000000
N2   N   0.380431600530704   0.332305618985818   0.111089514342510   1.0000000
N2   N   0.361685188682601   0.466568574100742   0.111504253851487   1.0000000
N2   N   0.380426653591824   0.619575144367180   0.111083595952855   1.0000000
N2   N   0.380677767955338   0.762776371941972   0.111017528122783   1.0000000
N2   N   0.524189556520883   0.907004872176243   0.110968491463464   1.0000000
N2   N   0.523972858707151   0.047700338909929   0.110944765228699   1.0000000
N2   N   0.524194081997896   0.188615677329879   0.110954919103189   1.0000000
N2   N   0.525021331700810   0.328652974015539   0.110853199479046   1.0000000
N2   N   0.533477912085885   0.466523684539127   0.111635808617922   1.0000000
N2   N   0.533433085182261   0.638316493456399   0.111504255429488   1.0000000
N2   N   0.525034234912861   0.767792698325840   0.110896013967313   1.0000000
N2   N   0.667924959308060   0.907278465949764   0.110936659547348   1.0000000
N2   N   0.667092775291385   0.048439585132165   0.110942449463468   1.0000000
N2   N   0.667098866244763   0.190090831156599   0.110956469140554   1.0000000
N2   N   0.667920758099987   0.332081052449017   0.110919602189333   1.0000000
N2   N   0.671348690116443   0.474980384309193   0.110853179080046   1.0000000
N2   N   0.667696011658181   0.619570094014293   0.111089516977508   1.0000000
N2   N   0.671340942050577   0.767795329735208   0.110882731406571   1.0000000
N2   N   0.811390327252987   0.906999447524258   0.110965178146695   1.0000000
N2   N   0.809910160411893   0.048432210590082   0.110978713701301   1.0000000
N2   N   0.809524917834369   0.190476736857629   0.111096565647672   1.0000000
N2   N   0.809910906951401   0.332902818916243   0.110956463200551   1.0000000
N2   N   0.811386214225125   0.475807672452117   0.110954898592187   1.0000000
N2   N   0.810661276837493   0.619325413206130   0.110983164208793   1.0000000
N2   N   0.810664020334524   0.762763046691400   0.110983455362921   1.0000000


