data_1
_audit_creation_method   'vasp2cif'
_cell_length_a    17.52789999999977
_cell_length_b    17.52789999999977
_cell_length_c    15.0
_cell_angle_alpha    90.0
_cell_angle_beta    90.0
_cell_angle_gamma    119.99999999999916

_symmetry_space_group_name_H-M    'P 1'
loop_
_atom_site_label
_atom_site_type_symbol
_atom_site_fract_x
_atom_site_fract_y
_atom_site_fract_z
_atom_site_occupancy
B2   B   0.904639161270043   0.952151165600247   0.111013816653920   1.0000000
B2   B   0.904616683810571   0.095000062068295   0.111041798822281   1.0000000
B2   B   0.904600129115208   0.238031942766456   0.111044406703288   1.0000000
B2   B   0.904577551440629   0.381065671942644   0.111004645685082   1.0000000
B2   B   0.904604341627764   0.523939969339834   0.111005364401763   1.0000000
B2   B   0.902709166132619   0.666486205485137   0.111051115008018   1.0000000
B2   B   0.902768510452221   0.807756157593168   0.111014446762986   1.0000000
B2   B   0.046621747364250   0.951502482824667   0.111010109576867   1.0000000
B2   B   0.047485298280260   0.095073323091123   0.111013364578024   1.0000000
B2   B   0.047601925926863   0.238062848331141   0.111000936903873   1.0000000
B2   B   0.047591534895271   0.380972291972122   0.111015872131484   1.0000000
B2   B   0.047503750777505   0.523833231697444   0.111013424094402   1.0000000
B2   B   0.046649415153479   0.666561763488856   0.111032491850681   1.0000000
B2   B   0.046835820688519   0.809139763002420   0.111007997730560   1.0000000
B2   B   0.190058433028828   0.952093542991799   0.111004221782587   1.0000000
B2   B   0.189893765077032   0.094684879141991   0.111051670386103   1.0000000
B2   B   0.190594621758448   0.238243843461269   0.111002093353941   1.0000000
B2   B   0.190714286286067   0.381086248875940   0.111001663753990   1.0000000
B2   B   0.190691958524765   0.523821625641511   0.111053576565142   1.0000000
B2   B   0.190025058643982   0.666625864061119   0.111051227231879   1.0000000
B2   B   0.190069526482363   0.809388948194627   0.111003289223809   1.0000000
B2   B   0.333264789872399   0.952336229715379   0.111019677542543   1.0000000
B2   B   0.333258607462916   0.095116057102449   0.111054995218720   1.0000000
B2   B   0.332800652338268   0.237407735165090   0.111040790120987   1.0000000
B2   B   0.333951340650596   0.381036583426270   0.111031094538100   1.0000000
B2   B   0.334224519103171   0.524514667551826   0.111051535670285   1.0000000
B2   B   0.333179758631838   0.666811997442157   0.111052342004023   1.0000000
B2   B   0.333291274371730   0.809543658263486   0.111047606115669   1.0000000
B2   B   0.476364526823757   0.952413899197449   0.111010322563727   1.0000000
B2   B   0.476362192509517   0.095376293661664   0.111006911346845   1.0000000
B2   B   0.476459164060960   0.238261472500942   0.111042975232163   1.0000000
B2   B   0.475594414196369   0.379914058997042   0.111003854888013   1.0000000
B2   B   0.476628542674538   0.667377116665901   0.111061763100289   1.0000000
B2   B   0.476553210068713   0.809669700886429   0.111033084036018   1.0000000
B2   B   0.619223075106244   0.951475278941786   0.111014729874065   1.0000000
B2   B   0.619141732786102   0.095310599212962   0.111006245209651   1.0000000
B2   B   0.619190168146125   0.239232140883978   0.111019891960055   1.0000000
B2   B   0.619039152634604   0.383768226316261   0.111006414841513   1.0000000
B2   B   0.626441298121159   0.535290810091300   0.111019965600593   1.0000000
B2   B   0.627419626489620   0.662406481831075   0.111056996641074   1.0000000
B2   B   0.619492004226643   0.806925130351495   0.111021123395357   1.0000000
B2   B   0.761869329373910   0.951921616839556   0.111009805134946   1.0000000
B2   B   0.761793428502634   0.095015867415683   0.111047467313653   1.0000000
B2   B   0.761776189861238   0.238286422633842   0.111053565552347   1.0000000
B2   B   0.761766839045031   0.381485106320081   0.111017618049917   1.0000000
B2   B   0.762486046782437   0.524415552284959   0.111031984932262   1.0000000
B2   B   0.754821359858463   0.663390211691891   0.111034081316866   1.0000000
B2   B   0.762440606649655   0.809799072642757   0.111006009494102   1.0000000
C2   C   0.474823298009434   0.522580964398469   0.111153070895515   1.0000000
C2   C   0.523755951041213   0.480684084525221   0.111017647732268   1.0000000
C2   C   0.526279939875020   0.615362755692804   0.111180131030206   1.0000000
N2   N   0.951073854398925   0.903436363538721   0.110992851616122   1.0000000
N2   N   0.952278800665368   0.047397224480081   0.111008451380304   1.0000000
N2   N   0.952263219426535   0.190353483026184   0.111018304989770   1.0000000
N2   N   0.952246852723150   0.333362577808229   0.111006232750300   1.0000000
N2   N   0.952272810398899   0.476332737898563   0.110974160284409   1.0000000
N2   N   0.951061780266803   0.619103294913987   0.111017790402818   1.0000000
N2   N   0.951238021632583   0.761360521892671   0.111015247402629   1.0000000
N2   N   0.094614401530693   0.904315015525768   0.110987205862328   1.0000000
N2   N   0.094576457953067   0.046927199794225   0.111011030314144   1.0000000
N2   N   0.095286259622327   0.190468606697961   0.110977884116487   1.0000000
N2   N   0.095338302433576   0.333391893453025   0.110982377983953   1.0000000
N2   N   0.095327906324031   0.476259891248782   0.111011149895173   1.0000000
N2   N   0.094637970336620   0.619080533724412   0.111012903838991   1.0000000
N2   N   0.094624193552677   0.761743954339105   0.110994520720549   1.0000000
N2   N   0.237865206106462   0.904643682191716   0.110985911052596   1.0000000
N2   N   0.237843081210543   0.047369254791203   0.111028211148467   1.0000000
N2   N   0.237627186920965   0.190000456384409   0.111019163903985   1.0000000
N2   N   0.238565780401427   0.333735640150190   0.110987301237519   1.0000000
N2   N   0.238770936102001   0.476366433662548   0.111019265755346   1.0000000
N2   N   0.237871423090519   0.619095534571421   0.111041359177944   1.0000000
N2   N   0.237868686121055   0.761897410618583   0.111010797942891   1.0000000
N2   N   0.380994810617054   0.904794919211207   0.111007644596689   1.0000000
N2   N   0.380989680307807   0.047608548186074   0.111016949368062   1.0000000
N2   N   0.380970064351105   0.190396164496134   0.111036722857734   1.0000000
N2   N   0.380534248284514   0.332652611850118   0.110998451791039   1.0000000
N2   N   0.382285877423631   0.476853829483178   0.111059424565310   1.0000000
N2   N   0.381237200037119   0.619561991031839   0.111017913507586   1.0000000
N2   N   0.381097439524068   0.762005674937753   0.111033004130365   1.0000000
N2   N   0.524023623786088   0.904741284289508   0.111007204599809   1.0000000
N2   N   0.523912609644083   0.047677172387974   0.110974108866330   1.0000000
N2   N   0.523989062106622   0.190704324497629   0.111008961370377   1.0000000
N2   N   0.523888736777906   0.333477493710820   0.110994198207943   1.0000000
N2   N   0.524311268752600   0.762020960432017   0.110995211504657   1.0000000
N2   N   0.666699517004225   0.903003460613121   0.111002106871242   1.0000000
N2   N   0.666588499132610   0.047125725089028   0.111004263091361   1.0000000
N2   N   0.666566661016649   0.190947750193012   0.111011731350106   1.0000000
N2   N   0.666511244355022   0.335189805626424   0.110994098495353   1.0000000
N2   N   0.667920794563796   0.481157977802252   0.110998926176438   1.0000000
N2   N   0.668329139857809   0.758767526720883   0.110993525202839   1.0000000
N2   N   0.809685856457409   0.904676399110449   0.110990628407357   1.0000000
N2   N   0.809334566279913   0.047264275991768   0.111016315350772   1.0000000
N2   N   0.809297029018719   0.190402495609594   0.111035533650598   1.0000000
N2   N   0.809264832964123   0.333587758959171   0.111014844915854   1.0000000
N2   N   0.809587161507790   0.476604366750259   0.111004776367352   1.0000000
N2   N   0.806453066024712   0.618999824441950   0.111026831369780   1.0000000
N2   N   0.806495326492423   0.759200783525072   0.110997981352880   1.0000000


