data_1
_audit_creation_method   'vasp2cif'
_cell_length_a    17.52789999999977
_cell_length_b    17.52789999999977
_cell_length_c    15.0
_cell_angle_alpha    90.0
_cell_angle_beta    90.0
_cell_angle_gamma    119.99999999999916

_symmetry_space_group_name_H-M    'P 1'
loop_
_atom_site_label
_atom_site_type_symbol
_atom_site_fract_x
_atom_site_fract_y
_atom_site_fract_z
_atom_site_occupancy
In2   In   0.495091319927844   0.504910081989152   0.111206257953185   1.0000000
B2   B   0.906278864050163   0.953464641044646   0.111019347164669   1.0000000
B2   B   0.904588734500420   0.095413286695576   0.111034059743078   1.0000000
B2   B   0.904239222578602   0.238098051969025   0.111036462048883   1.0000000
B2   B   0.904853530000632   0.381056667679798   0.110997070144524   1.0000000
B2   B   0.906516471658699   0.524227366444464   0.111040502736109   1.0000000
B2   B   0.907640995727273   0.667626970914129   0.111054402206932   1.0000000
B2   B   0.907681842432608   0.811049405469067   0.111036151367103   1.0000000
B2   B   0.048248549040073   0.951753472155930   0.111011006457937   1.0000000
B2   B   0.046537380151359   0.093723157145833   0.111019347164669   1.0000000
B2   B   0.046037605092483   0.237024785857868   0.110990507652574   1.0000000
B2   B   0.046572814357084   0.380522252346125   0.111007220522319   1.0000000
B2   B   0.048016637883660   0.523729777968615   0.111024449904470   1.0000000
B2   B   0.049177768036502   0.666636039913035   0.111062546165164   1.0000000
B2   B   0.049140499366314   0.809365833910962   0.111052889750761   1.0000000
B2   B   0.190636187285043   0.950861521829689   0.111052889750761   1.0000000
B2   B   0.188952615726936   0.092320178763389   0.111036151367103   1.0000000
B2   B   0.186340934372841   0.233728832420280   0.110983516433289   1.0000000
B2   B   0.187429410779357   0.379126547051260   0.111017480786386   1.0000000
B2   B   0.189505956438617   0.523121865804645   0.111060214727395   1.0000000
B2   B   0.191412909216864   0.666124252267027   0.111058214669505   1.0000000
B2   B   0.191328557726294   0.808673463469709   0.111014388228543   1.0000000
B2   B   0.333365981283963   0.950824253159501   0.111062546165164   1.0000000
B2   B   0.332375050282869   0.092361025468723   0.111054402206932   1.0000000
B2   B   0.329162462586699   0.231865653640861   0.111011136593825   1.0000000
B2   B   0.324263892659691   0.374365156123842   0.111033206286012   1.0000000
B2   B   0.330677107856600   0.521713724532697   0.111034713886521   1.0000000
B2   B   0.334246375934473   0.665755645262526   0.111077816319944   1.0000000
B2   B   0.333877768929971   0.808589111979139   0.111058214669505   1.0000000
B2   B   0.476272243228384   0.951985383312343   0.111024449904470   1.0000000
B2   B   0.475774654752534   0.093485549537297   0.111040502736109   1.0000000
B2   B   0.474802073890084   0.233935669062190   0.110994772752276   1.0000000
B2   B   0.467319226654498   0.364885670191588   0.111082514290397   1.0000000
B2   B   0.478288296664302   0.669324913340396   0.111034713886521   1.0000000
B2   B   0.476880155392353   0.810496064757387   0.111060214727395   1.0000000
B2   B   0.619479768849878   0.953429206838919   0.111007220522319   1.0000000
B2   B   0.618945353516206   0.095148491195364   0.110997070144524   1.0000000
B2   B   0.618959478723826   0.237266051700682   0.110975852754439   1.0000000
B2   B   0.619922902274490   0.380079118921514   0.111008611679780   1.0000000
B2   B   0.635116351004416   0.532682794542498   0.111082514290397   1.0000000
B2   B   0.625636865072162   0.675738128537306   0.111033206286012   1.0000000
B2   B   0.620875474144744   0.812572610416647   0.111017480786386   1.0000000
B2   B   0.762977235338136   0.953964416103521   0.110990507652574   1.0000000
B2   B   0.761903969226979   0.095762798617396   0.111036462048883   1.0000000
B2   B   0.761851030172036   0.238150991023966   0.111042718512007   1.0000000
B2   B   0.762735969495320   0.381042542472179   0.110975852754439   1.0000000
B2   B   0.766066352133814   0.525199947306914   0.110994772752276   1.0000000
B2   B   0.768136367555143   0.670839558610300   0.111011136593825   1.0000000
B2   B   0.766273188775723   0.813661086823162   0.110983516433289   1.0000000
N2   N   0.953653658425553   0.905384529897481   0.110996731464548   1.0000000
N2   N   0.952284347984502   0.047717053933502   0.111017093183385   1.0000000
N2   N   0.951454298212067   0.190228457374094   0.111005640638756   1.0000000
N2   N   0.951625197102209   0.333148220853492   0.110983131419791   1.0000000
N2   N   0.952769619785414   0.476142217587167   0.110995774113300   1.0000000
N2   N   0.953793901134282   0.619165530923981   0.111051892855985   1.0000000
N2   N   0.954060446949329   0.762287379534262   0.111040560122902   1.0000000
N2   N   0.095847353341583   0.904154048576415   0.111019442609358   1.0000000
N2   N   0.094616872020517   0.046347743492452   0.110996731464548   1.0000000
N2   N   0.092696690982997   0.188153026406481   0.110978762449782   1.0000000
N2   N   0.093093553026091   0.332039118591766   0.110982863844175   1.0000000
N2   N   0.094558133687743   0.475616039826693   0.111013992487867   1.0000000
N2   N   0.096095205491648   0.618744744985425   0.111031054870553   1.0000000
N2   N   0.096263218028189   0.761531540607035   0.111016960419244   1.0000000
N2   N   0.238469861310970   0.903738183889810   0.111016960419244   1.0000000
N2   N   0.237714022383744   0.045940954968677   0.111040560122902   1.0000000
N2   N   0.235521748151972   0.187127253688582   0.110981848256098   1.0000000
N2   N   0.231770781913035   0.327753136431383   0.110989311227816   1.0000000
N2   N   0.235548547907530   0.474500384938796   0.111022813063530   1.0000000
N2   N   0.238726262009386   0.618330897649582   0.111056805550516   1.0000000
N2   N   0.238813252599679   0.761188149318327   0.111021016654905   1.0000000
N2   N   0.381256656932573   0.903906196426350   0.111031054870553   1.0000000
N2   N   0.380835870994017   0.046207500783724   0.111051892855985   1.0000000
N2   N   0.379997790625951   0.188002770519639   0.110998337078315   1.0000000
N2   N   0.376061463369161   0.327873669580563   0.111026806807632   1.0000000
N2   N   0.368242922609454   0.466194397182276   0.111005862808639   1.0000000
N2   N   0.382128987884552   0.617872414033448   0.111034881444774   1.0000000
N2   N   0.381670504268416   0.761275139908619   0.111056805550516   1.0000000
N2   N   0.524385362090303   0.905443268230256   0.111013992487867   1.0000000
N2   N   0.523859184329830   0.047231782132592   0.110995774113300   1.0000000
N2   N   0.523649741823391   0.189165997647185   0.110977070396417   1.0000000
N2   N   0.523576859692121   0.331157107453475   0.111000209891779   1.0000000
N2   N   0.533807004734722   0.631758479308544   0.111005862808639   1.0000000
N2   N   0.525501016978201   0.764452854010476   0.111022813063530   1.0000000
N2   N   0.667962283325230   0.906907848891908   0.110982863844175   1.0000000
N2   N   0.666853181063504   0.048376204815795   0.110983131419791   1.0000000
N2   N   0.666537034055890   0.190613352693826   0.110996932321301   1.0000000
N2   N   0.666641950611041   0.333359451305956   0.110959001572194   1.0000000
N2   N   0.668844294463523   0.476424542224876   0.111000209891779   1.0000000
N2   N   0.672127732336434   0.623939938548838   0.111026806807632   1.0000000
N2   N   0.672248265485613   0.768230620004970   0.110989311227816   1.0000000
N2   N   0.811848375511517   0.907304710935002   0.110978762449782   1.0000000
N2   N   0.809772944543904   0.048547103705938   0.111005640638756   1.0000000
N2   N   0.809195617861511   0.190805784056487   0.111036482097900   1.0000000
N2   N   0.809388049224173   0.333464367861107   0.110996932321301   1.0000000
N2   N   0.810835404270813   0.476351660093606   0.110977070396417   1.0000000
N2   N   0.811998631398360   0.620003611292047   0.110998337078315   1.0000000
N2   N   0.812874148229416   0.764479653766033   0.110981848256098   1.0000000


