data_1
_audit_creation_method   'vasp2cif'
_cell_length_a    14.93631414619966
_cell_length_b    14.936314146199727
_cell_length_c    13.341276283792837
_cell_angle_alpha    90.0
_cell_angle_beta    90.0
_cell_angle_gamma    119.99999999999984

_symmetry_space_group_name_H-M    'P 1'
loop_
_atom_site_label
_atom_site_type_symbol
_atom_site_fract_x
_atom_site_fract_y
_atom_site_fract_z
_atom_site_occupancy
C2   C   0.441270250293255   0.387301791813292   0.375000000000000   1.0000000
O2   O   0.556178567849837   0.444755950591583   0.375000000000000   1.0000000
N2   N   0.111115201722155   0.055564172721817   0.125037578238578   1.0000000
N2   N   0.611085210278218   0.555511366824231   0.125848784608297   1.0000000
N2   N   0.444469891013860   0.055564117103081   0.125022721856017   1.0000000
N2   N   0.944461813843824   0.555564875340669   0.125053334031995   1.0000000
N2   N   0.777764978979685   0.055549156156511   0.124986323027318   1.0000000
N2   N   0.111133425421111   0.722233379377219   0.625005114849456   1.0000000
N2   N   0.444469891013860   0.722239107244115   0.624977278143983   1.0000000
N2   N   0.277760434926105   0.222241763155872   0.624904846050253   1.0000000
N2   N   0.777768874584357   0.722205659546565   0.624851620814896   1.0000000
N2   N   0.611126477112891   0.222207219207144   0.624933133206408   1.0000000
N2   N   0.944414373729016   0.222215082501419   0.625020986048188   1.0000000
N2   N   0.277800503896720   0.722228490536131   0.124986454849734   1.0000000
N2   N   0.111050784766493   0.222192059049911   0.124912480769429   1.0000000
N2   N   0.444513568178787   0.222246409180650   0.124968340068681   1.0000000
N2   N   0.611126477112891   0.722252591239076   0.125066866793590   1.0000000
N2   N   0.944461813843824   0.722230271836491   0.125053334031995   1.0000000
N2   N   0.777777400380221   0.222224112657533   0.125028870662690   1.0000000
N2   N   0.111136562520877   0.888907765188652   0.624999405462558   1.0000000
N2   N   0.444459482132741   0.888896407733035   0.625004094732307   1.0000000
N2   N   0.277760434926105   0.388852005103561   0.624904846050253   1.0000000
N2   N   0.611085210278218   0.388907176787316   0.624151215391703   1.0000000
N2   N   0.777777400380221   0.888886621056016   0.624971129337310   1.0000000
N2   N   0.944450404294058   0.388899811468597   0.624982253294143   1.0000000
N2   N   0.111115201722155   0.388884362333667   0.125037578238578   1.0000000
N2   N   0.277800503896720   0.888905346693918   0.124986454849734   1.0000000
N2   N   0.611117300199601   0.888906248597353   0.125000174574799   1.0000000
N2   N   0.444432069029075   0.388882701181201   0.124293174587855   1.0000000
N2   N   0.944450404294058   0.888883926158789   0.125017746705857   1.0000000
N2   N   0.777768874584357   0.388896548371121   0.125148379185105   1.0000000
N2   N   0.277808918632673   0.555552469598376   0.625006175429045   1.0000000
N2   N   0.111115201722155   0.055564172721817   0.624962421761422   1.0000000
N2   N   0.611085210278218   0.555511366824231   0.624151215391703   1.0000000
N2   N   0.444469891013860   0.055564117103081   0.624977278143983   1.0000000
N2   N   0.944461813843824   0.555564875340669   0.624946665968005   1.0000000
N2   N   0.111136562520877   0.555562130665554   0.125000594537442   1.0000000
N2   N   0.777764978979685   0.055549156156511   0.625013676972682   1.0000000
N2   N   0.277808918632673   0.055589782367632   0.124993824570954   1.0000000
N2   N   0.444513568178787   0.555600492331473   0.124968340068681   1.0000000
N2   N   0.777781473267170   0.555557403300253   0.125244282628309   1.0000000
N2   N   0.611117300199601   0.055544384935576   0.125000174574799   1.0000000
N2   N   0.444513568178787   0.555600492331473   0.625031659931319   1.0000000
N2   N   0.944414373729016   0.055532624560933   0.124979013951812   1.0000000
N2   N   0.277800503896720   0.722228490536131   0.625013545150266   1.0000000
N2   N   0.111050784766493   0.222192059049911   0.625087519230572   1.0000000
N2   N   0.444513568178787   0.222246409180650   0.625031659931319   1.0000000
N2   N   0.611126477112891   0.722252591239076   0.624933133206408   1.0000000
N2   N   0.944461813843824   0.722230271836491   0.624946665968005   1.0000000
N2   N   0.777777400380221   0.222224112657533   0.624971129337310   1.0000000
N2   N   0.111133425421111   0.722233379377219   0.124994885150544   1.0000000
N2   N   0.444469891013860   0.722239107244115   0.125022721856017   1.0000000
N2   N   0.277760434926105   0.222241763155872   0.125095153949748   1.0000000
N2   N   0.777768874584357   0.722205659546565   0.125148379185105   1.0000000
N2   N   0.611126477112891   0.222207219207144   0.125066866793590   1.0000000
N2   N   0.944414373729016   0.222215082501419   0.124979013951812   1.0000000
N2   N   0.111115201722155   0.388884362333667   0.624962421761422   1.0000000
N2   N   0.277800503896720   0.888905346693918   0.625013545150266   1.0000000
N2   N   0.611117300199601   0.888906248597353   0.624999825425201   1.0000000
N2   N   0.444432069029075   0.388882701181201   0.625706825412146   1.0000000
N2   N   0.944450404294058   0.888883926158789   0.624982253294143   1.0000000
N2   N   0.111136562520877   0.888907765188652   0.125000594537442   1.0000000
N2   N   0.777768874584357   0.388896548371121   0.624851620814896   1.0000000
N2   N   0.444459482132741   0.888896407733035   0.124995905267692   1.0000000
N2   N   0.277760434926105   0.388852005103561   0.125095153949748   1.0000000
N2   N   0.277808918632673   0.555552469598376   0.124993824570954   1.0000000
N2   N   0.611085210278218   0.388907176787316   0.125848784608297   1.0000000
N2   N   0.777777400380221   0.888886621056016   0.125028870662690   1.0000000
N2   N   0.944450404294058   0.388899811468597   0.125017746705857   1.0000000
N2   N   0.111136562520877   0.555562130665554   0.624999405462558   1.0000000
N2   N   0.277808918632673   0.055589782367632   0.625006175429045   1.0000000
N2   N   0.777781473267170   0.555557403300253   0.624755717371691   1.0000000
N2   N   0.611117300199601   0.055544384935576   0.624999825425201   1.0000000
N2   N   0.944414373729016   0.055532624560933   0.625020986048188   1.0000000
N2   N   0.055997477940336   0.111378817725510   0.375000000000000   1.0000000
N2   N   0.555308210643874   0.609882781249948   0.375000000000000   1.0000000
N2   N   0.388378738054694   0.111086465824066   0.375000000000000   1.0000000
N2   N   0.888371268631655   0.610852300982499   0.375000000000000   1.0000000
N2   N   0.722173321143347   0.111178404774067   0.375000000000000   1.0000000
N2   N   0.055555610290080   0.777779111056481   0.875000000000000   1.0000000
N2   N   0.388894525171657   0.777779878494232   0.875000000000000   1.0000000
N2   N   0.222222392876484   0.277777863104909   0.875000000000000   1.0000000
N2   N   0.722232504100299   0.777781201126047   0.875000000000000   1.0000000
N2   N   0.555570766398537   0.277788999178301   0.875000000000000   1.0000000
N2   N   0.888896643469201   0.277783159394088   0.875000000000000   1.0000000
N2   N   0.221848629359083   0.777590981346209   0.375000000000000   1.0000000
N2   N   0.055997477940336   0.277951993548161   0.375000000000000   1.0000000
N2   N   0.390789647376101   0.279774576907912   0.375000000000000   1.0000000
N2   N   0.555442983809605   0.777263315145450   0.375000000000000   1.0000000
N2   N   0.888421598486475   0.777444086696838   0.375000000000000   1.0000000
N2   N   0.721966813579077   0.277891764404152   0.375000000000000   1.0000000
N2   N   0.055557236589264   0.944445263594245   0.875000000000000   1.0000000
N2   N   0.388894525171657   0.944447980010762   0.875000000000000   1.0000000
N2   N   0.222224658986636   0.444446297733395   0.875000000000000   1.0000000
N2   N   0.555569732518256   0.444451532925792   0.875000000000000   1.0000000
N2   N   0.722227787395222   0.944446528565886   0.875000000000000   1.0000000
N2   N   0.888895295470135   0.444447029143916   0.875000000000000   1.0000000
N2   N   0.055684323409686   0.444425995537493   0.375000000000000   1.0000000
N2   N   0.221862284896709   0.944010193764145   0.375000000000000   1.0000000
N2   N   0.555489246454712   0.944411289894020   0.375000000000000   1.0000000
N2   N   0.390789647376101   0.444348403801525   0.375000000000000   1.0000000
N2   N   0.888927054447085   0.944444280302556   0.375000000000000   1.0000000
N2   N   0.721143828456031   0.444579508361463   0.375000000000000   1.0000000
N2   N   0.222223094720075   0.611111551509096   0.875000000000000   1.0000000
N2   N   0.055558526796525   0.111110101933036   0.875000000000000   1.0000000
N2   N   0.555570766398537   0.611115100553570   0.875000000000000   1.0000000
N2   N   0.388896137174730   0.111115951465523   0.875000000000000   1.0000000
N2   N   0.888894701202564   0.611114017267954   0.875000000000000   1.0000000
N2   N   0.055120601459714   0.610935081723480   0.375000000000000   1.0000000
N2   N   0.722227787395222   0.111114592162671   0.875000000000000   1.0000000
N2   N   0.223157238554236   0.111556825053404   0.375000000000000   1.0000000
N2   N   0.388378738054694   0.610625605563970   0.375000000000000   1.0000000
N2   N   0.721143828456031   0.609897653427904   0.375000000000000   1.0000000
N2   N   0.555442983809605   0.111513001997490   0.375000000000000   1.0000000
N2   N   0.388896137174730   0.611113519042550   0.875000000000000   1.0000000
N2   N   0.889043492319210   0.111188412826276   0.375000000000000   1.0000000
N2   N   0.222222101489393   0.777777717411364   0.875000000000000   1.0000000
N2   N   0.055558526796525   0.277781758196824   0.875000000000000   1.0000000
N2   N   0.388894967303997   0.277779164323963   0.875000000000000   1.0000000
N2   N   0.555562104189825   0.777780172350942   0.875000000000000   1.0000000
N2   N   0.888895295470135   0.777781599659554   0.875000000000000   1.0000000
N2   N   0.722232504100299   0.277784636307587   0.875000000000000   1.0000000
N2   N   0.055120601459714   0.777518853069569   0.375000000000000   1.0000000
N2   N   0.388719166389187   0.777583188749359   0.375000000000000   1.0000000
N2   N   0.223082099020148   0.278207716176742   0.375000000000000   1.0000000
N2   N   0.721966813579077   0.777408382508260   0.375000000000000   1.0000000
N2   N   0.555308210643874   0.278758762727263   0.375000000000000   1.0000000
N2   N   0.888927054447085   0.277816107477864   0.375000000000000   1.0000000
N2   N   0.055557236589264   0.444445306328348   0.875000000000000   1.0000000
N2   N   0.222223094720075   0.944444876544315   0.875000000000000   1.0000000
N2   N   0.555559408667541   0.944446371000435   0.875000000000000   1.0000000
N2   N   0.388894967303997   0.444449136313370   0.875000000000000   1.0000000
N2   N   0.888896643469201   0.944446817408449   0.875000000000000   1.0000000
N2   N   0.055684323409686   0.944591661205522   0.375000000000000   1.0000000
N2   N   0.722229731438859   0.444449344723429   0.875000000000000   1.0000000
N2   N   0.388719166389187   0.944469310973163   0.375000000000000   1.0000000
N2   N   0.223157238554236   0.444933746834168   0.375000000000000   1.0000000
N2   N   0.221862284896709   0.611185424465901   0.375000000000000   1.0000000
N2   N   0.722173321143347   0.944328249702617   0.375000000000000   1.0000000
N2   N   0.888421598486475   0.444310845122973   0.375000000000000   1.0000000
N2   N   0.055555610290080   0.611109832566935   0.875000000000000   1.0000000
N2   N   0.222224658986636   0.111111694586578   0.875000000000000   1.0000000
N2   N   0.722229731438859   0.611113720048765   0.875000000000000   1.0000000
N2   N   0.555562104189825   0.111115265172219   0.875000000000000   1.0000000
N2   N   0.888895024120764   0.111114178727053   0.875000000000000   1.0000000
B2   B   0.111952584072758   0.056156499595779   0.375000000000000   1.0000000
B2   B   0.611646132348202   0.557414326203049   0.375000000000000   1.0000000
B2   B   0.443912464698975   0.055756581713676   0.375000000000000   1.0000000
B2   B   0.944327061333344   0.555397662983506   0.375000000000000   1.0000000
B2   B   0.777917367420220   0.055625350376778   0.375000000000000   1.0000000
B2   B   0.111125673825858   0.722229503579594   0.875000000000000   1.0000000
B2   B   0.444436467846768   0.722210683390693   0.875000000000000   1.0000000
B2   B   0.277776914898570   0.222231598132725   0.875000000000000   1.0000000
B2   B   0.777792139850495   0.722244814104509   0.875000000000000   1.0000000
B2   B   0.611103870192080   0.222215473304710   0.875000000000000   1.0000000
B2   B   0.944472314971539   0.222229447346851   0.875000000000000   1.0000000
B2   B   0.277537281678475   0.722142201641896   0.375000000000000   1.0000000
B2   B   0.112356945374752   0.222845139354040   0.375000000000000   1.0000000
B2   B   0.442565448234432   0.222344807052284   0.375000000000000   1.0000000
B2   B   0.610852648227089   0.721740014834093   0.375000000000000   1.0000000
B2   B   0.944327061333344   0.722262731683175   0.375000000000000   1.0000000
B2   B   0.777828306691386   0.222176618824151   0.375000000000000   1.0000000
B2   B   0.111128149660437   0.888911011008134   0.875000000000000   1.0000000
B2   B   0.444441429089902   0.888887381211615   0.875000000000000   1.0000000
B2   B   0.277776914898570   0.388878650099173   0.875000000000000   1.0000000
B2   B   0.611091186217647   0.388875558030326   0.875000000000000   1.0000000
B2   B   0.777793944959683   0.888908142638904   0.875000000000000   1.0000000
B2   B   0.944469459929063   0.388885036426125   0.875000000000000   1.0000000
B2   B   0.111952584072758   0.389129417810308   0.375000000000000   1.0000000
B2   B   0.277537281678475   0.888728413369907   0.375000000000000   1.0000000
B2   B   0.610952344238302   0.888595765847114   0.375000000000000   1.0000000
B2   B   0.944601244884822   0.889116127682401   0.375000000000000   1.0000000
B2   B   0.777572866401627   0.388542401592387   0.375000000000000   1.0000000
B2   B   0.277779637517043   0.555542022181526   0.875000000000000   1.0000000
B2   B   0.111130665900367   0.055578713443540   0.875000000000000   1.0000000
B2   B   0.611091186217647   0.555548961520650   0.875000000000000   1.0000000
B2   B   0.444436467846768   0.055559117789411   0.875000000000000   1.0000000
B2   B   0.944467383724672   0.555557259481388   0.875000000000000   1.0000000
B2   B   0.110982786565301   0.555508672766095   0.375000000000000   1.0000000
B2   B   0.777794011239483   0.055563672286409   0.875000000000000   1.0000000
B2   B   0.277580810422853   0.055211780075499   0.375000000000000   1.0000000
B2   B   0.442565448234432   0.553553974515482   0.375000000000000   1.0000000
B2   B   0.778063295347454   0.555698314340396   0.375000000000000   1.0000000
B2   B   0.610952344238302   0.055689911724517   0.375000000000000   1.0000000
B2   B   0.444419462350406   0.555531452317366   0.875000000000000   1.0000000
B2   B   0.944979484242908   0.055909896090246   0.375000000000000   1.0000000
B2   B   0.277781314044203   0.722217528659444   0.875000000000000   1.0000000
B2   B   0.111135058806762   0.222234196070045   0.875000000000000   1.0000000
B2   B   0.444419462350406   0.222221343366375   0.875000000000000   1.0000000
B2   B   0.611103870192080   0.722221730220699   0.875000000000000   1.0000000
B2   B   0.944467383724672   0.722243457576619   0.875000000000000   1.0000000
B2   B   0.777793944959683   0.222219135654108   0.875000000000000   1.0000000
B2   B   0.110870182128666   0.722101757730997   0.375000000000000   1.0000000
B2   B   0.443912464698975   0.721489216318635   0.375000000000000   1.0000000
B2   B   0.279601092236397   0.223093181405607   0.375000000000000   1.0000000
B2   B   0.777572866401627   0.722363798142570   0.375000000000000   1.0000000
B2   B   0.610852648227089   0.222445966726325   0.375000000000000   1.0000000
B2   B   0.944979484242908   0.222402921485997   0.375000000000000   1.0000000
B2   B   0.111130665900367   0.388885285790156   0.875000000000000   1.0000000
B2   B   0.277781314044203   0.888897118718087   0.875000000000000   1.0000000
B2   B   0.611109980517744   0.888889931057309   0.875000000000000   1.0000000
B2   B   0.444402857893525   0.388868095613427   0.875000000000000   1.0000000
B2   B   0.944469459929063   0.888917756836267   0.875000000000000   1.0000000
B2   B   0.110982786565301   0.888807447132535   0.375000000000000   1.0000000
B2   B   0.777792139850495   0.388880659079314   0.875000000000000   1.0000000
B2   B   0.444227152665677   0.888780242999503   0.375000000000000   1.0000000
B2   B   0.279601092236397   0.389841244164118   0.375000000000000   1.0000000
B2   B   0.277580810422853   0.555702363680690   0.375000000000000   1.0000000
B2   B   0.611646132348202   0.387565139478481   0.375000000000000   1.0000000
B2   B   0.777828306691386   0.888985021200564   0.375000000000000   1.0000000
B2   B   0.944601244884822   0.388818450535750   0.375000000000000   1.0000000
B2   B   0.111128149660437   0.555550471985631   0.875000000000000   1.0000000
B2   B   0.277779637517043   0.055570948668852   0.875000000000000   1.0000000
B2   B   0.777791410938637   0.555562372135987   0.875000000000000   1.0000000
B2   B   0.611109980517744   0.055553382793764   0.875000000000000   1.0000000
B2   B   0.944472314971539   0.055576200958024   0.875000000000000   1.0000000
B2   B   0.055581045863340   0.111154061824832   0.125017339656693   1.0000000
B2   B   0.555418220157307   0.611121920046210   0.125137708654387   1.0000000
B2   B   0.388896684297957   0.111145130584747   0.125110371447098   1.0000000
B2   B   0.888987963269031   0.611160648301188   0.124951174317699   1.0000000
B2   B   0.722207387990782   0.111081927951686   0.124992638191131   1.0000000
B2   B   0.055652922542454   0.777846748861801   0.625008168332508   1.0000000
B2   B   0.388905110392677   0.777781242703732   0.624984075851186   1.0000000
B2   B   0.222242888374348   0.277788110853842   0.624809043360184   1.0000000
B2   B   0.722195365820852   0.777824676183269   0.625015798952550   1.0000000
B2   B   0.555418220157307   0.277629633444432   0.624862291345614   1.0000000
B2   B   0.888911964063752   0.277760123313097   0.625011610965742   1.0000000
B2   B   0.222286793954514   0.777810063643925   0.125000911599604   1.0000000
B2   B   0.055581045863340   0.277760317371844   0.125017339656693   1.0000000
B2   B   0.388846565759737   0.277797045719179   0.125314770369358   1.0000000
B2   B   0.555527984844211   0.777804231682682   0.124996884800201   1.0000000
B2   B   0.888948375989526   0.777839453801255   0.124969248101361   1.0000000
B2   B   0.722195365820852   0.277704022970918   0.124984201047450   1.0000000
B2   B   0.055626515078401   0.944519394201980   0.624981173649030   1.0000000
B2   B   0.388905110392677   0.944457201022282   0.624984075851186   1.0000000
B2   B   0.222283639898458   0.444410913424572   0.624822326067778   1.0000000
B2   B   0.555245102583206   0.444289217958267   0.625149762560577   1.0000000
B2   B   0.722207387990782   0.944458793372432   0.625007361808869   1.0000000
B2   B   0.888948375989526   0.444442255521607   0.625030751898639   1.0000000
B2   B   0.055626515078401   0.444440454209750   0.125018826350969   1.0000000
B2   B   0.222291736052608   0.944523764651716   0.125021795915121   1.0000000
B2   B   0.555544650562912   0.944438991948120   0.124999287308234   1.0000000
B2   B   0.388846565759737   0.444382853373894   0.125314770369358   1.0000000
B2   B   0.888911964063752   0.944485174083990   0.124988389034259   1.0000000
B2   B   0.722214133140024   0.444415096821589   0.125079739502177   1.0000000
B2   B   0.222291736052608   0.611101304734229   0.624978204084880   1.0000000
B2   B   0.055581045863340   0.111154061824832   0.624982660343307   1.0000000
B2   B   0.555418220157307   0.611121920046210   0.624862291345614   1.0000000
B2   B   0.388896684297957   0.111145130584747   0.624889628552902   1.0000000
B2   B   0.888987963269031   0.611160648301188   0.625048825682301   1.0000000
B2   B   0.055652922542454   0.611139507013989   0.124991831667492   1.0000000
B2   B   0.722207387990782   0.111081927951686   0.625007361808869   1.0000000
B2   B   0.222283639898458   0.111206059807222   0.125177673932222   1.0000000
B2   B   0.388896684297957   0.611084887046553   0.125110371447098   1.0000000
B2   B   0.722214133140024   0.611132369651770   0.125079739502177   1.0000000
B2   B   0.555527984844211   0.111057086494864   0.124996884800201   1.0000000
B2   B   0.388896684297957   0.611084887046553   0.624889628552902   1.0000000
B2   B   0.888896736483109   0.111115034908226   0.124994205526004   1.0000000
B2   B   0.222286793954514   0.777810063643925   0.624999088400396   1.0000000
B2   B   0.055581045863340   0.277760317371844   0.624982660343307   1.0000000
B2   B   0.388846565759737   0.277797045719179   0.624685229630643   1.0000000
B2   B   0.555527984844211   0.777804231682682   0.625003115199799   1.0000000
B2   B   0.888948375989526   0.777839453801255   0.625030751898639   1.0000000
B2   B   0.722195365820852   0.277704022970918   0.625015798952550   1.0000000
B2   B   0.055652922542454   0.777846748861801   0.124991831667492   1.0000000
B2   B   0.388905110392677   0.777781242703732   0.125015924148813   1.0000000
B2   B   0.222242888374348   0.277788110853842   0.125190956639817   1.0000000
B2   B   0.722195365820852   0.777824676183269   0.124984201047450   1.0000000
B2   B   0.555418220157307   0.277629633444432   0.125137708654387   1.0000000
B2   B   0.888911964063752   0.277760123313097   0.124988389034259   1.0000000
B2   B   0.055626515078401   0.444440454209750   0.624981173649030   1.0000000
B2   B   0.222291736052608   0.944523764651716   0.624978204084880   1.0000000
B2   B   0.555544650562912   0.944438991948120   0.625000712691765   1.0000000
B2   B   0.388846565759737   0.444382853373894   0.624685229630643   1.0000000
B2   B   0.888911964063752   0.944485174083990   0.625011610965742   1.0000000
B2   B   0.055626515078401   0.944519394201980   0.125018826350969   1.0000000
B2   B   0.722214133140024   0.444415096821589   0.624920260497822   1.0000000
B2   B   0.388905110392677   0.944457201022282   0.125015924148813   1.0000000
B2   B   0.222283639898458   0.444410913424572   0.125177673932222   1.0000000
B2   B   0.222291736052608   0.611101304734229   0.125021795915121   1.0000000
B2   B   0.555245102583206   0.444289217958267   0.124850237439422   1.0000000
B2   B   0.722207387990782   0.944458793372432   0.124992638191131   1.0000000
B2   B   0.888948375989526   0.444442255521607   0.124969248101361   1.0000000
B2   B   0.055652922542454   0.611139507013989   0.625008168332508   1.0000000
B2   B   0.222283639898458   0.111206059807222   0.624822326067778   1.0000000
B2   B   0.722214133140024   0.611132369651770   0.624920260497822   1.0000000
B2   B   0.555527984844211   0.111057086494864   0.625003115199799   1.0000000
B2   B   0.888896736483109   0.111115034908226   0.625005794473996   1.0000000


