data_1
_audit_creation_method   'vasp2cif'
_cell_length_a    17.52789999999977
_cell_length_b    17.52789999999977
_cell_length_c    15.0
_cell_angle_alpha    90.0
_cell_angle_beta    90.0
_cell_angle_gamma    119.99999999999916

_symmetry_space_group_name_H-M    'P 1'
loop_
_atom_site_label
_atom_site_type_symbol
_atom_site_fract_x
_atom_site_fract_y
_atom_site_fract_z
_atom_site_occupancy
B2   B   0.905842031560541   0.952842401355548   0.108353810935039   1.0000000
B2   B   0.904771335135735   0.095238560406324   0.108877340027569   1.0000000
B2   B   0.904434969197274   0.238054985095263   0.110362786579968   1.0000000
B2   B   0.904527592873671   0.380915045338990   0.111872095872246   1.0000000
B2   B   0.905421681503391   0.523839000806546   0.112206553333966   1.0000000
B2   B   0.906757059985371   0.667074473965953   0.110916187225803   1.0000000
B2   B   0.907157110356906   0.810583931667914   0.109164849159570   1.0000000
B2   B   0.048270763344625   0.951729197504558   0.108469500718309   1.0000000
B2   B   0.047161246904357   0.094161199136029   0.108403947681826   1.0000000
B2   B   0.046928371684129   0.237350136612314   0.109585823844268   1.0000000
B2   B   0.047239965858285   0.380460553053064   0.111243649857485   1.0000000
B2   B   0.048099212275090   0.523324763119685   0.111841388376847   1.0000000
B2   B   0.048879232256504   0.666210586804960   0.111034690848912   1.0000000
B2   B   0.048941095244660   0.809106714397518   0.109569451082051   1.0000000
B2   B   0.190899672646795   0.951059239205586   0.109037074733829   1.0000000
B2   B   0.189417617027431   0.092836620340924   0.108669275507967   1.0000000
B2   B   0.188344979621379   0.235279942973532   0.109501958477551   1.0000000
B2   B   0.189366703152101   0.379622579125035   0.111630820051438   1.0000000
B2   B   0.190854804378128   0.522857391960920   0.112618021561525   1.0000000
B2   B   0.191590718817829   0.665758459993508   0.111639288920597   1.0000000
B2   B   0.191463096518808   0.808544361067784   0.110054848137227   1.0000000
B2   B   0.333808671485112   0.951130385740145   0.109746700218517   1.0000000
B2   B   0.332929522259752   0.093232572590966   0.109625049687633   1.0000000
B2   B   0.330132784830743   0.233304673641785   0.110235673039528   1.0000000
B2   B   0.328737465590335   0.376138420290916   0.112566925007232   1.0000000
B2   B   0.333593627159201   0.521929193694617   0.114457897471031   1.0000000
B2   B   0.334650381637468   0.665354060815811   0.113070596523948   1.0000000
B2   B   0.334245173543974   0.808408734285465   0.110878565322138   1.0000000
B2   B   0.476682589951097   0.951899043427876   0.110176266497722   1.0000000
B2   B   0.476181078297957   0.094594351903321   0.110553306583020   1.0000000
B2   B   0.475138482274825   0.236828188331163   0.111767657215244   1.0000000
B2   B   0.469390210273669   0.374145597229550   0.113416630263118   1.0000000
B2   B   0.478065646493097   0.666398959019249   0.114130136451927   1.0000000
B2   B   0.477147908761525   0.809139173487669   0.111496912741214   1.0000000
B2   B   0.619549292528573   0.952764616140496   0.109891679465765   1.0000000
B2   B   0.619092622497153   0.095476043612578   0.110548460638650   1.0000000
B2   B   0.618621251114146   0.238456418153774   0.112225923512419   1.0000000
B2   B   0.618110612104274   0.381873235855940   0.113700055879940   1.0000000
B2   B   0.625839650662939   0.530595446725014   0.113620622825477   1.0000000
B2   B   0.623858618979473   0.671261879274839   0.112573262402403   1.0000000
B2   B   0.620381550516634   0.810635121008897   0.110848446422728   1.0000000
B2   B   0.762659968955118   0.953078472002781   0.108942743414598   1.0000000
B2   B   0.761960350329052   0.095580442982873   0.109779753032017   1.0000000
B2   B   0.761614365795225   0.238393435576503   0.111506618644960   1.0000000
B2   B   0.761538614108565   0.381386254966561   0.112994291837888   1.0000000
B2   B   0.763157182782306   0.524853821270926   0.112902345787688   1.0000000
B2   B   0.766689646641565   0.669866359700293   0.111004430051982   1.0000000
B2   B   0.764719570078862   0.811654220347044   0.109442485612997   1.0000000
N2   N   0.953606216772634   0.905203390799342   0.108450314831617   1.0000000
N2   N   0.952443784302844   0.047559919336807   0.108344447850666   1.0000000
N2   N   0.951927767719035   0.190280327885232   0.109441302125042   1.0000000
N2   N   0.951974881838857   0.333179354207970   0.111091165655549   1.0000000
N2   N   0.952665666660095   0.476032596324741   0.112041696611615   1.0000000
N2   N   0.953615789520908   0.618946572664503   0.111446413828548   1.0000000
N2   N   0.953973938903490   0.762099259584592   0.109757961838283   1.0000000
N2   N   0.095944188454679   0.904055756534894   0.108880809306794   1.0000000
N2   N   0.094798649150946   0.046393712236011   0.108284603310043   1.0000000
N2   N   0.093878792910424   0.188942332579976   0.108852402173789   1.0000000
N2   N   0.094397128185390   0.332469789877087   0.110648443309119   1.0000000
N2   N   0.095447301621343   0.475579084975838   0.111898357388779   1.0000000
N2   N   0.096226604263362   0.618452857224440   0.111512227042230   1.0000000
N2   N   0.096336495867544   0.761291314367980   0.110150956867396   1.0000000
N2   N   0.238715986335070   0.903667022118235   0.109458446145793   1.0000000
N2   N   0.237902682827227   0.046023051069285   0.108897060845189   1.0000000
N2   N   0.235829178220077   0.187362092960042   0.109052311034721   1.0000000
N2   N   0.235030150983047   0.330014211542617   0.111001688662939   1.0000000
N2   N   0.238045942172904   0.474890853706196   0.113106992778054   1.0000000
N2   N   0.239178721905502   0.618079991649853   0.112648301789959   1.0000000
N2   N   0.239055271947089   0.760942957070159   0.110765174484770   1.0000000
N2   N   0.381555679132064   0.903769778057955   0.110096089834657   1.0000000
N2   N   0.381070550946600   0.046391753163936   0.109852598586995   1.0000000
N2   N   0.380016291714585   0.188344685429672   0.110317880156736   1.0000000
N2   N   0.376286761886425   0.327732907818268   0.111792953023262   1.0000000
N2   N   0.377588553500548   0.470533872412922   0.115074578525993   1.0000000
N2   N   0.382503795589493   0.617496585877321   0.114468034015846   1.0000000
N2   N   0.381927134724536   0.760820245287615   0.111918071149337   1.0000000
N2   N   0.524428153478515   0.904545369023627   0.110329192335938   1.0000000
N2   N   0.523978243790954   0.047336835379607   0.110291370748504   1.0000000
N2   N   0.523408806183026   0.190139606096744   0.111553236573795   1.0000000
N2   N   0.522083070667198   0.333034849655143   0.113320726967126   1.0000000
N2   N   0.529461940180435   0.622412371362010   0.114989690034554   1.0000000
N2   N   0.525108987815287   0.761946746642062   0.112248161649301   1.0000000
N2   N   0.667535046023018   0.905603055286637   0.109612824394793   1.0000000
N2   N   0.666831851121306   0.048030038489692   0.109882427754793   1.0000000
N2   N   0.666355901559605   0.190946574076530   0.111493281881348   1.0000000
N2   N   0.665767905841290   0.334226520704692   0.113277380941253   1.0000000
N2   N   0.666951176073704   0.477905101656199   0.113905840425652   1.0000000
N2   N   0.672261830938701   0.623708290558282   0.112237886129594   1.0000000
N2   N   0.669984501714633   0.764966562555242   0.110706836320349   1.0000000
N2   N   0.811061305864348   0.906122463635481   0.108561845475544   1.0000000
N2   N   0.809729439364655   0.048080156000969   0.108989403900127   1.0000000
N2   N   0.809245130051840   0.190767744412246   0.110492557997436   1.0000000
N2   N   0.809054527457878   0.333651883462770   0.112283798058116   1.0000000
N2   N   0.809867876911691   0.476603818703215   0.112948104772037   1.0000000
N2   N   0.811648107129316   0.619982377858038   0.111546999151815   1.0000000
N2   N   0.812632865666863   0.764166097075317   0.109517788591955   1.0000000
Si2   Si   0.489685978022991   0.510311052071006   0.114338409556436   1.0000000


