data_1
_audit_creation_method   'vasp2cif'
_cell_length_a    17.52789999999977
_cell_length_b    17.52789999999977
_cell_length_c    15.0
_cell_angle_alpha    90.0
_cell_angle_beta    90.0
_cell_angle_gamma    119.99999999999916

_symmetry_space_group_name_H-M    'P 1'
loop_
_atom_site_label
_atom_site_type_symbol
_atom_site_fract_x
_atom_site_fract_y
_atom_site_fract_z
_atom_site_occupancy
B2   B   0.903318193174154   0.950304865701949   0.106707459379398   1.0000000
B2   B   0.904256713101744   0.093261310056690   0.108911631275637   1.0000000
B2   B   0.904950788179825   0.236180718749283   0.109013638920299   1.0000000
B2   B   0.905262444341671   0.379192018085401   0.107751774804063   1.0000000
B2   B   0.906089405180133   0.522702987001301   0.105220283212972   1.0000000
B2   B   0.906010823805155   0.666225192830108   0.102450431418993   1.0000000
B2   B   0.904848633126539   0.809081906432708   0.103031013795795   1.0000000
B2   B   0.047602300305979   0.952711149197189   0.105853681009462   1.0000000
B2   B   0.048396002503726   0.095766556196665   0.106800972241605   1.0000000
B2   B   0.048523411298993   0.237900669378132   0.107633133723881   1.0000000
B2   B   0.048014552514599   0.380199605431976   0.107406164885299   1.0000000
B2   B   0.047280357534756   0.523226767804117   0.107466863798052   1.0000000
B2   B   0.047096609921823   0.666695334253904   0.107095712864783   1.0000000
B2   B   0.047418585958406   0.809873043996277   0.105819663524414   1.0000000
B2   B   0.190245701318427   0.953187061896815   0.107920072653742   1.0000000
B2   B   0.191116047934289   0.096397619145811   0.106714100883147   1.0000000
B2   B   0.193990860785025   0.241725930653786   0.107483640260502   1.0000000
B2   B   0.192012878834000   0.382382023195480   0.107668721989398   1.0000000
B2   B   0.189130009794725   0.524438746894464   0.107015780071536   1.0000000
B2   B   0.187903783983536   0.667292470361530   0.108843202791012   1.0000000
B2   B   0.189375212233724   0.810274452994729   0.109314901008611   1.0000000
B2   B   0.332605930682350   0.952926723838409   0.109727869397489   1.0000000
B2   B   0.333541522042938   0.095783023947991   0.109314305771995   1.0000000
B2   B   0.334352824399009   0.239201948136261   0.110454393317112   1.0000000
B2   B   0.341425048063186   0.390085422837517   0.114187594871432   1.0000000
B2   B   0.331587596119594   0.527426133633799   0.108407380407101   1.0000000
B2   B   0.328135376983186   0.668784995243203   0.106661744752544   1.0000000
B2   B   0.331324785467089   0.810601513066654   0.109997519041808   1.0000000
B2   B   0.475071849041191   0.951247406724147   0.110490917507051   1.0000000
B2   B   0.476051188170891   0.094011249335588   0.110259554381743   1.0000000
B2   B   0.476837789080216   0.236352372948915   0.116596159678587   1.0000000
B2   B   0.473703406387993   0.372752598433370   0.140170156279684   1.0000000
B2   B   0.484837587848746   0.576056523908918   0.121798928158559   1.0000000
B2   B   0.466623829991672   0.663540747429586   0.109375891322919   1.0000000
B2   B   0.473203559973015   0.807984873764369   0.110486775141301   1.0000000
B2   B   0.617306739950273   0.948932939820262   0.111391199422393   1.0000000
B2   B   0.618663726792878   0.092657956588323   0.110353442395764   1.0000000
B2   B   0.619559536238923   0.235594163405648   0.112606782495527   1.0000000
B2   B   0.620924790761328   0.378108764435373   0.122780708634900   1.0000000
B2   B   0.633376471626048   0.526376315868244   0.132271262266542   1.0000000
B2   B   0.615937602144231   0.656311837240205   0.119161614949347   1.0000000
B2   B   0.614532957611194   0.803664589903367   0.113168062445202   1.0000000
B2   B   0.759709232310653   0.948473388821465   0.110545456199750   1.0000000
B2   B   0.761236584972518   0.092293194458369   0.110411636712188   1.0000000
B2   B   0.762150938489253   0.235542139347310   0.109819685518367   1.0000000
B2   B   0.763062286991761   0.378712724740553   0.109582575296353   1.0000000
B2   B   0.765736097079700   0.522402868216733   0.107429610331207   1.0000000
B2   B   0.765119554240580   0.666075744673504   0.103173104114092   1.0000000
B2   B   0.758207238331535   0.804312937666600   0.108515788965868   1.0000000
N2   N   0.951907155151840   0.903981797715872   0.104848876202197   1.0000000
N2   N   0.952178500177201   0.046196514179990   0.107466740361658   1.0000000
N2   N   0.952852203771887   0.188946361840245   0.108707816784895   1.0000000
N2   N   0.952798441228309   0.331670170928849   0.108140250343906   1.0000000
N2   N   0.952554479263238   0.474620139081793   0.106796147573586   1.0000000
N2   N   0.952372682376636   0.618074964304541   0.104555779668566   1.0000000
N2   N   0.952107306755475   0.761395073734458   0.102833202606131   1.0000000
N2   N   0.094983504660701   0.905189210184710   0.106654269731773   1.0000000
N2   N   0.095831272131282   0.048275282043144   0.106317245802742   1.0000000
N2   N   0.097814674448042   0.192122593153127   0.107069857794142   1.0000000
N2   N   0.096752784109342   0.333451686176580   0.107199026746925   1.0000000
N2   N   0.094681580796003   0.475520552350551   0.107198437619379   1.0000000
N2   N   0.093560133321078   0.618569165335941   0.108394594703959   1.0000000
N2   N   0.094356705627951   0.762020965346273   0.107877325288545   1.0000000
N2   N   0.237468805764709   0.905516208114971   0.109284308665052   1.0000000
N2   N   0.238457280613037   0.048748546032011   0.107663392118210   1.0000000
N2   N   0.239900086188587   0.192571760625435   0.106847243916608   1.0000000
N2   N   0.244646071616246   0.339382065347947   0.108927535847408   1.0000000
N2   N   0.237911736551762   0.477351679289685   0.107432844307303   1.0000000
N2   N   0.234392111157975   0.619403729874533   0.107474363454105   1.0000000
N2   N   0.236340205840712   0.762479900803607   0.109871597706237   1.0000000
N2   N   0.379940379797573   0.905270039974864   0.110335292225451   1.0000000
N2   N   0.380911577073103   0.048093632766032   0.109594068066309   1.0000000
N2   N   0.381959066802383   0.191589082708444   0.111758962819632   1.0000000
N2   N   0.383608065610628   0.336257637445522   0.117526833648064   1.0000000
N2   N   0.392609788831950   0.491651419994045   0.114814166071746   1.0000000
N2   N   0.374056624957266   0.621221541650445   0.104798184478211   1.0000000
N2   N   0.378348620866427   0.762865907999891   0.109155832924991   1.0000000
N2   N   0.522150871761688   0.902776119275902   0.111198628103003   1.0000000
N2   N   0.523439615822360   0.046257469754922   0.110064712191458   1.0000000
N2   N   0.524322987439280   0.189290222151057   0.112274070682513   1.0000000
N2   N   0.525334279682076   0.331794194879186   0.128755992336952   1.0000000
N2   N   0.519187790265316   0.757681738432738   0.111241407268946   1.0000000
N2   N   0.663746357089365   0.899255282094037   0.112086843223600   1.0000000
N2   N   0.665778609911041   0.044356138763104   0.110680194234155   1.0000000
N2   N   0.666802347900792   0.188038273116273   0.110520954707822   1.0000000
N2   N   0.667553402798196   0.331086217960242   0.114469125830649   1.0000000
N2   N   0.670803549866045   0.473708193472119   0.119902136559266   1.0000000
N2   N   0.669560832869868   0.616487552077052   0.111406655719471   1.0000000
N2   N   0.659516528267835   0.751756045731766   0.114518535212293   1.0000000
N2   N   0.806552942029739   0.900093828561739   0.108512002014837   1.0000000
N2   N   0.808372103730587   0.044150915628255   0.110188074566419   1.0000000
N2   N   0.809476145338137   0.187822432815359   0.109856623743216   1.0000000
N2   N   0.809958502530688   0.331003659666386   0.108699244103858   1.0000000
N2   N   0.811114851051649   0.474102912338322   0.105878797018041   1.0000000
N2   N   0.810847483704579   0.617415555957794   0.102030243175465   1.0000000
N2   N   0.808815241060452   0.760011645494683   0.103060402598152   1.0000000
Ga2   Ga   0.519967710883792   0.496274020317587   0.208792348620697   1.0000000


