data_1
_audit_creation_method   'vasp2cif'
_cell_length_a    14.93631414619966
_cell_length_b    14.936314146199727
_cell_length_c    13.341276283792837
_cell_angle_alpha    90.0
_cell_angle_beta    90.0
_cell_angle_gamma    119.99999999999984

_symmetry_space_group_name_H-M    'P 1'
loop_
_atom_site_label
_atom_site_type_symbol
_atom_site_fract_x
_atom_site_fract_y
_atom_site_fract_z
_atom_site_occupancy
Sb2   Sb   0.444444444444443   0.388888888888886   0.375000000000000   1.0000000
N2   N   0.111214798876970   0.055611089138285   0.125190641898934   1.0000000
N2   N   0.611017422788345   0.555384230517938   0.132614414000396   1.0000000
N2   N   0.444396290261312   0.055611089138285   0.125190641898934   1.0000000
N2   N   0.944445796269208   0.555570090396411   0.124369078590815   1.0000000
N2   N   0.777777777777779   0.055555555555557   0.123987348662408   1.0000000
N2   N   0.111111111111114   0.722222222222221   0.625729182928587   1.0000000
N2   N   0.444396290261312   0.722118534456342   0.624809358101067   1.0000000
N2   N   0.277949102815422   0.222315910544979   0.617385585999576   1.0000000
N2   N   0.777722244195054   0.722118534456342   0.624809358101067   1.0000000
N2   N   0.611019684106091   0.222313649227271   0.623521090370201   1.0000000
N2   N   0.944514375166970   0.222269641134207   0.625798183714700   1.0000000
N2   N   0.277763242936903   0.722209039206078   0.124369078590817   1.0000000
N2   N   0.111293965121207   0.222313649227271   0.126478909629797   1.0000000
N2   N   0.444366807729571   0.222315910544979   0.132614414000396   1.0000000
N2   N   0.611019684106091   0.722039368212137   0.126478909629797   1.0000000
N2   N   0.944445796269208   0.722209039206078   0.124369078590817   1.0000000
N2   N   0.777755265967249   0.222269641134207   0.124201816285299   1.0000000
N2   N   0.111124294127238   0.888887537064121   0.625630921409189   1.0000000
N2   N   0.444408353909151   0.888870843621231   0.625946990369479   1.0000000
N2   N   0.277949102815422   0.388966525603757   0.617385585999576   1.0000000
N2   N   0.611017422788345   0.388966525603757   0.617385585999576   1.0000000
N2   N   0.777755265967249   0.888818958166359   0.625798183714700   1.0000000
N2   N   0.944462489712097   0.388924979424177   0.625946990369479   1.0000000
N2   N   0.111214798876970   0.388937043072017   0.125190641898934   1.0000000
N2   N   0.277763242936903   0.888887537064121   0.124369078590817   1.0000000
N2   N   0.611063692199135   0.888818958166359   0.124201816285299   1.0000000
N2   N   0.444444444444443   0.388888888888886   0.153828904865896   1.0000000
N2   N   0.944462489712097   0.888870843621231   0.124053009630537   1.0000000
N2   N   0.777722244195054   0.388937043072017   0.125190641898934   1.0000000
N2   N   0.277790201263111   0.555543132070247   0.623502277501026   1.0000000
N2   N   0.111214798876970   0.055611089138285   0.624809358101067   1.0000000
N2   N   0.611017422788345   0.555384230517938   0.617385585999576   1.0000000
N2   N   0.444396290261312   0.055611089138285   0.624809358101067   1.0000000
N2   N   0.944445796269208   0.555570090396411   0.625630921409189   1.0000000
N2   N   0.111124294127239   0.555570090396411   0.124369078590817   1.0000000
N2   N   0.777777777777779   0.055555555555557   0.626012651337605   1.0000000
N2   N   0.277790201263111   0.055580402526213   0.126497722499007   1.0000000
N2   N   0.444366807729571   0.555384230517937   0.132614414000395   1.0000000
N2   N   0.777752930807113   0.555543132070247   0.126497722499007   1.0000000
N2   N   0.611063692199135   0.055578067366083   0.124201816285299   1.0000000
N2   N   0.444366807729571   0.555384230517937   0.617385585999576   1.0000000
N2   N   0.944514375166970   0.055578067366083   0.124201816285299   1.0000000
N2   N   0.277763242936903   0.722209039206078   0.625630921409189   1.0000000
N2   N   0.111293965121207   0.222313649227271   0.623521090370201   1.0000000
N2   N   0.444366807729571   0.222315910544979   0.617385585999576   1.0000000
N2   N   0.611019684106091   0.722039368212137   0.623521090370201   1.0000000
N2   N   0.944445796269208   0.722209039206078   0.625630921409189   1.0000000
N2   N   0.777755265967249   0.222269641134207   0.625798183714700   1.0000000
N2   N   0.111111111111114   0.722222222222221   0.124270817071421   1.0000000
N2   N   0.444396290261312   0.722118534456342   0.125190641898934   1.0000000
N2   N   0.277949102815422   0.222315910544979   0.132614414000396   1.0000000
N2   N   0.777722244195054   0.722118534456342   0.125190641898934   1.0000000
N2   N   0.611019684106091   0.222313649227271   0.126478909629797   1.0000000
N2   N   0.944514375166970   0.222269641134207   0.124201816285299   1.0000000
N2   N   0.111214798876970   0.388937043072017   0.624809358101067   1.0000000
N2   N   0.277763242936903   0.888887537064121   0.625630921409189   1.0000000
N2   N   0.611063692199135   0.888818958166359   0.625798183714700   1.0000000
N2   N   0.444444444444443   0.388888888888886   0.596171095134084   1.0000000
N2   N   0.944462489712097   0.888870843621231   0.625946990369479   1.0000000
N2   N   0.111124294127239   0.888887537064121   0.124369078590817   1.0000000
N2   N   0.777722244195054   0.388937043072017   0.624809358101067   1.0000000
N2   N   0.444408353909151   0.888870843621231   0.124053009630537   1.0000000
N2   N   0.277949102815422   0.388966525603757   0.132614414000396   1.0000000
N2   N   0.277790201263111   0.555543132070247   0.126497722499007   1.0000000
N2   N   0.611017422788345   0.388966525603757   0.132614414000395   1.0000000
N2   N   0.777755265967249   0.888818958166359   0.124201816285299   1.0000000
N2   N   0.944462489712097   0.388924979424177   0.124053009630537   1.0000000
N2   N   0.111124294127238   0.555570090396411   0.625630921409189   1.0000000
N2   N   0.277790201263111   0.055580402526213   0.623502277501026   1.0000000
N2   N   0.777752930807113   0.555543132070247   0.623502277501026   1.0000000
N2   N   0.611063692199135   0.055578067366083   0.625798183714700   1.0000000
N2   N   0.944514375166970   0.055578067366083   0.625798183714700   1.0000000
N2   N   0.054217118252835   0.110244865314711   0.375000000000000   1.0000000
N2   N   0.556083321515560   0.612166643031116   0.375000000000000   1.0000000
N2   N   0.387437033631365   0.103259229398658   0.375000000000000   1.0000000
N2   N   0.891600348663133   0.612466840998245   0.375000000000000   1.0000000
N2   N   0.722471028870121   0.110862304463246   0.375000000000000   1.0000000
N2   N   0.055549403105580   0.777783930227730   0.875000000000000   1.0000000
N2   N   0.388905332631305   0.777776853824470   0.875000000000000   1.0000000
N2   N   0.222242682367151   0.277788007850242   0.875000000000000   1.0000000
N2   N   0.722211089526386   0.777773744511003   0.875000000000000   1.0000000
N2   N   0.555545325483113   0.277788007850242   0.875000000000000   1.0000000
N2   N   0.888885228483279   0.277770456966494   0.875000000000000   1.0000000
N2   N   0.221734700617817   0.777534016975564   0.375000000000000   1.0000000
N2   N   0.054217118252835   0.277305586271460   0.375000000000000   1.0000000
N2   N   0.374980451704047   0.249960903408060   0.375000000000000   1.0000000
N2   N   0.556027747061863   0.779116215080531   0.375000000000000   1.0000000
N2   N   0.891048688548314   0.779572971744594   0.375000000000000   1.0000000
N2   N   0.723088468018598   0.277305586271460   0.375000000000000   1.0000000
N2   N   0.055556479508861   0.944461812140172   0.875000000000000   1.0000000
N2   N   0.388905332631305   0.944461812140172   0.875000000000000   1.0000000
N2   N   0.222239563803624   0.444424676309429   0.875000000000000   1.0000000
N2   N   0.555514599836599   0.444423966584964   0.875000000000000   1.0000000
N2   N   0.722222473579205   0.944444947158335   0.875000000000000   1.0000000
N2   N   0.888871521193157   0.444428000702024   0.875000000000000   1.0000000
N2   N   0.053760361588741   0.444809050137020   0.375000000000000   1.0000000
N2   N   0.220866492335085   0.941732984670196   0.375000000000000   1.0000000
N2   N   0.555970103331995   0.944651718332657   0.375000000000000   1.0000000
N2   N   0.374980451704047   0.458352881629282   0.375000000000000   1.0000000
N2   N   0.888681615000672   0.944651718332657   0.375000000000000   1.0000000
N2   N   0.730074103934688   0.445896299701964   0.375000000000000   1.0000000
N2   N   0.222238272712287   0.611095060621045   0.875000000000000   1.0000000
N2   N   0.055559588822323   0.111122243806932   0.875000000000000   1.0000000
N2   N   0.555545325483113   0.611090650966188   0.875000000000000   1.0000000
N2   N   0.388908657023900   0.111148220827524   0.875000000000000   1.0000000
N2   N   0.888856787908782   0.611095060621045   0.875000000000000   1.0000000
N2   N   0.055799316357760   0.611598632715501   0.375000000000000   1.0000000
N2   N   0.722222473579205   0.111110859754168   0.875000000000000   1.0000000
N2   N   0.215822195767292   0.103259229398658   0.375000000000000   1.0000000
N2   N   0.387437033631365   0.617511137566043   0.375000000000000   1.0000000
N2   N   0.730074103934688   0.617511137566043   0.375000000000000   1.0000000
N2   N   0.556027747061863   0.110244865314711   0.375000000000000   1.0000000
N2   N   0.388908657023900   0.611093769529716   0.875000000000000   1.0000000
N2   N   0.888391275593175   0.110862304463246   0.375000000000000   1.0000000
N2   N   0.222234527122173   0.777783930227730   0.875000000000000   1.0000000
N2   N   0.055559588822323   0.277770678348724   0.875000000000000   1.0000000
N2   N   0.388909366748365   0.277818733496745   0.875000000000000   1.0000000
N2   N   0.555562654984592   0.777773744511003   0.875000000000000   1.0000000
N2   N   0.888871521193157   0.777776853824470   0.875000000000000   1.0000000
N2   N   0.722211089526386   0.277770678348724   0.875000000000000   1.0000000
N2   N   0.055799316357760   0.777534016975564   0.375000000000000   1.0000000
N2   N   0.388524283196309   0.779572971744594   0.375000000000000   1.0000000
N2   N   0.221166690302205   0.277250011817778   0.375000000000000   1.0000000
N2   N   0.723088468018598   0.779116215080531   0.375000000000000   1.0000000
N2   N   0.556083321515560   0.277250011817778   0.375000000000000   1.0000000
N2   N   0.888681615000672   0.277363230001338   0.375000000000000   1.0000000
N2   N   0.055556479508861   0.444428000702024   0.875000000000000   1.0000000
N2   N   0.222238272712287   0.944476545424546   0.875000000000000   1.0000000
N2   N   0.555562876366842   0.944448104850050   0.875000000000000   1.0000000
N2   N   0.388909366748365   0.444423966584964   0.875000000000000   1.0000000
N2   N   0.888885228483279   0.944448104850050   0.875000000000000   1.0000000
N2   N   0.053760361588741   0.942284644785014   0.375000000000000   1.0000000
N2   N   0.722185112505812   0.444424676309429   0.875000000000000   1.0000000
N2   N   0.388524283196309   0.942284644785014   0.375000000000000   1.0000000
N2   N   0.215822195767292   0.445896299701964   0.375000000000000   1.0000000
N2   N   0.220866492335085   0.612466840998245   0.375000000000000   1.0000000
N2   N   0.583372429925235   0.458352881629282   0.375000000000000   1.0000000
N2   N   0.722471028870121   0.944942057740153   0.375000000000000   1.0000000
N2   N   0.891048688548314   0.444809050137020   0.375000000000000   1.0000000
N2   N   0.055549403105580   0.611098806211180   0.875000000000000   1.0000000
N2   N   0.222239563803624   0.111148220827524   0.875000000000000   1.0000000
N2   N   0.722185112505812   0.611093769529716   0.875000000000000   1.0000000
N2   N   0.555562654984592   0.111122243806932   0.875000000000000   1.0000000
N2   N   0.888888386174994   0.111110859754168   0.875000000000000   1.0000000
B2   B   0.106039529291774   0.051130370342780   0.375000000000000   1.0000000
B2   B   0.622930478083669   0.567465769935082   0.375000000000000   1.0000000
B2   B   0.445090841051026   0.051130370342780   0.375000000000000   1.0000000
B2   B   0.945841772842040   0.555891566606667   0.375000000000000   1.0000000
B2   B   0.777777777777779   0.055555555555557   0.375000000000000   1.0000000
B2   B   0.111111111111114   0.722222222222221   0.875000000000000   1.0000000
B2   B   0.444477322008764   0.722307656148784   0.875000000000000   1.0000000
B2   B   0.277669142050586   0.222138577812837   0.875000000000000   1.0000000
B2   B   0.777830334140073   0.722307656148784   0.875000000000000   1.0000000
B2   B   0.611175484157370   0.222157849175955   0.875000000000000   1.0000000
B2   B   0.944382577239127   0.222180489570843   0.875000000000000   1.0000000
B2   B   0.277441766726669   0.723283539568755   0.375000000000000   1.0000000
B2   B   0.108190360621575   0.220761846977447   0.375000000000000   1.0000000
B2   B   0.444535291851445   0.210402855249689   0.375000000000000   1.0000000
B2   B   0.612571486355882   0.725142972711739   0.375000000000000   1.0000000
B2   B   0.945841772842040   0.723283539568755   0.375000000000000   1.0000000
B2   B   0.778130970556848   0.221351662570924   0.375000000000000   1.0000000
B2   B   0.111087610076112   0.888870595164464   0.875000000000000   1.0000000
B2   B   0.444476948196198   0.888905140764759   0.875000000000000   1.0000000
B2   B   0.277669142050586   0.388863897571068   0.875000000000000   1.0000000
B2   B   0.611194755520488   0.388863897571068   0.875000000000000   1.0000000
B2   B   0.777797912331711   0.888950756094201   0.875000000000000   1.0000000
B2   B   0.944428192568570   0.388856385137131   0.875000000000000   1.0000000
B2   B   0.106039529291774   0.388242492282303   0.375000000000000   1.0000000
B2   B   0.277441766726669   0.887491560491289   0.375000000000000   1.0000000
B2   B   0.611981670762426   0.890112641319252   0.375000000000000   1.0000000
B2   B   0.944110204999895   0.889223128333434   0.375000000000000   1.0000000
B2   B   0.782202962990531   0.388242492282303   0.375000000000000   1.0000000
B2   B   0.277747003301045   0.555586330032297   0.875000000000000   1.0000000
B2   B   0.111025677184532   0.055502999193287   0.875000000000000   1.0000000
B2   B   0.611194755520488   0.555664191282760   0.875000000000000   1.0000000
B2   B   0.444477322008764   0.055502999193287   0.875000000000000   1.0000000
B2   B   0.944462738168865   0.555550348244955   0.875000000000000   1.0000000
B2   B   0.110049793764609   0.555891566606667   0.375000000000000   1.0000000
B2   B   0.777777777777779   0.055555555555557   0.875000000000000   1.0000000
B2   B   0.275285001037234   0.050570002074457   0.375000000000000   1.0000000
B2   B   0.444535291851445   0.567465769935081   0.375000000000000   1.0000000
B2   B   0.782763331258867   0.558048332296096   0.375000000000000   1.0000000
B2   B   0.611981670762426   0.055202362776489   0.375000000000000   1.0000000
B2   B   0.444469435762261   0.555664191282760   0.875000000000000   1.0000000
B2   B   0.943220692014076   0.055202362776489   0.375000000000000   1.0000000
B2   B   0.277782985088365   0.722245723257206   0.875000000000000   1.0000000
B2   B   0.110982365018584   0.222157849175955   0.875000000000000   1.0000000
B2   B   0.444469435762261   0.222138577812837   0.875000000000000   1.0000000
B2   B   0.611175484157370   0.722350968314789   0.875000000000000   1.0000000
B2   B   0.944462738168865   0.722245723257206   0.875000000000000   1.0000000
B2   B   0.777797912331711   0.222180489570843   0.875000000000000   1.0000000
B2   B   0.111111111111114   0.722222222222221   0.375000000000000   1.0000000
B2   B   0.445090841051026   0.727293804041578   0.375000000000000   1.0000000
B2   B   0.265867563398246   0.210402855249688   0.375000000000000   1.0000000
B2   B   0.782202962990531   0.727293804041578   0.375000000000000   1.0000000
B2   B   0.612571486355882   0.220761846977447   0.375000000000000   1.0000000
B2   B   0.943220692014076   0.221351662570924   0.375000000000000   1.0000000
B2   B   0.111025677184532   0.388856011324565   0.875000000000000   1.0000000
B2   B   0.277782985088365   0.888870595164464   0.875000000000000   1.0000000
B2   B   0.611152843762470   0.888950756094201   0.875000000000000   1.0000000
B2   B   0.444444444444443   0.388888888888886   0.875000000000000   1.0000000
B2   B   0.944428192568570   0.888905140764759   0.875000000000000   1.0000000
B2   B   0.110049793764609   0.887491560491289   0.375000000000000   1.0000000
B2   B   0.777830334140073   0.388856011324565   0.875000000000000   1.0000000
B2   B   0.445112923333566   0.889223128333434   0.375000000000000   1.0000000
B2   B   0.265867563398246   0.388798041481884   0.375000000000000   1.0000000
B2   B   0.275285001037234   0.558048332296096   0.375000000000000   1.0000000
B2   B   0.622930478083669   0.388798041481884   0.375000000000000   1.0000000
B2   B   0.778130970556848   0.890112641319252   0.375000000000000   1.0000000
B2   B   0.944110204999895   0.388220409999762   0.375000000000000   1.0000000
B2   B   0.111087610076112   0.555550348244955   0.875000000000000   1.0000000
B2   B   0.277747003301045   0.055494006602097   0.875000000000000   1.0000000
B2   B   0.777839326731246   0.555586330032297   0.875000000000000   1.0000000
B2   B   0.611152843762470   0.055535421001613   0.875000000000000   1.0000000
B2   B   0.944382577239127   0.055535421001613   0.875000000000000   1.0000000
B2   B   0.055432595189109   0.110967797392616   0.124827261068673   1.0000000
B2   B   0.555743169410238   0.611486338820490   0.130086111182464   1.0000000
B2   B   0.388686088600265   0.110673055695258   0.127112066567149   1.0000000
B2   B   0.889150739012070   0.611242036172710   0.124494154593593   1.0000000
B2   B   0.722234990362245   0.111098342971098   0.123827147570768   1.0000000
B2   B   0.055590538680052   0.777742794653269   0.626073154721151   1.0000000
B2   B   0.388793422361946   0.777827623205822   0.625978903714093   1.0000000
B2   B   0.221846994512858   0.277590163923090   0.619913888817523   1.0000000
B2   B   0.722365535940732   0.777900738144237   0.625172738931369   1.0000000
B2   B   0.555743169410238   0.277590163923090   0.619913888817523   1.0000000
B2   B   0.888907377790030   0.277814755580067   0.626224631635858   1.0000000
B2   B   0.222152255973221   0.777742794653269   0.123926845278819   1.0000000
B2   B   0.055432595189109   0.277798131129827   0.124827261068673   1.0000000
B2   B   0.388321958590497   0.276643917181017   0.138169416502103   1.0000000
B2   B   0.555535202203518   0.777900738144237   0.124827261068673   1.0000000
B2   B   0.889034200843849   0.777827623205822   0.124021096285886   1.0000000
B2   B   0.722365535940732   0.277798131129827   0.124827261068673   1.0000000
B2   B   0.055505710127516   0.944299132489479   0.625978903714093   1.0000000
B2   B   0.388793422361946   0.944299132489479   0.625978903714093   1.0000000
B2   B   0.221986967095001   0.444647244733063   0.622887933432865   1.0000000
B2   B   0.556689416152334   0.445011374742831   0.611830583497906   1.0000000
B2   B   0.722234990362245   0.944469980724484   0.626172852429225   1.0000000
B2   B   0.889034200843849   0.444539910971382   0.625978903714093   1.0000000
B2   B   0.055505710127516   0.444539910971382   0.124021096285886   1.0000000
B2   B   0.222091297160619   0.944182594321259   0.124494154593593   1.0000000
B2   B   0.555518577753313   0.944425955543298   0.123775368364125   1.0000000
B2   B   0.388321958590497   0.445011374742831   0.138169416502106   1.0000000
B2   B   0.888907377790030   0.944425955543298   0.123775368364125   1.0000000
B2   B   0.722660277638076   0.444647244733063   0.127112066567149   1.0000000
B2   B   0.222091297160619   0.611242036172710   0.625505845406423   1.0000000
B2   B   0.055432595189108   0.110967797392616   0.625172738931369   1.0000000
B2   B   0.555743169410238   0.611486338820490   0.619913888817523   1.0000000
B2   B   0.388686088600265   0.110673055695258   0.622887933432865   1.0000000
B2   B   0.889150739012070   0.611242036172710   0.625505845406423   1.0000000
B2   B   0.055590538680052   0.611181077360106   0.123926845278819   1.0000000
B2   B   0.722234990362245   0.111098342971098   0.626172852429225   1.0000000
B2   B   0.221986967095001   0.110673055695258   0.127112066567149   1.0000000
B2   B   0.388686088600265   0.611346366238316   0.127112066567149   1.0000000
B2   B   0.722660277638076   0.611346366238316   0.127112066567149   1.0000000
B2   B   0.555535202203518   0.110967797392616   0.124827261068673   1.0000000
B2   B   0.388686088600265   0.611346366238316   0.622887933432865   1.0000000
B2   B   0.888863352608844   0.111098342971098   0.123827147570768   1.0000000
B2   B   0.222152255973221   0.777742794653269   0.626073154721151   1.0000000
B2   B   0.055432595189108   0.277798131129827   0.625172738931369   1.0000000
B2   B   0.388321958590497   0.276643917181017   0.611830583497906   1.0000000
B2   B   0.555535202203518   0.777900738144237   0.625172738931369   1.0000000
B2   B   0.889034200843849   0.777827623205822   0.625978903714093   1.0000000
B2   B   0.722365535940732   0.277798131129827   0.625172738931369   1.0000000
B2   B   0.055590538680052   0.777742794653269   0.123926845278819   1.0000000
B2   B   0.388793422361946   0.777827623205822   0.124021096285886   1.0000000
B2   B   0.221846994512857   0.277590163923090   0.130086111182464   1.0000000
B2   B   0.722365535940732   0.777900738144237   0.124827261068673   1.0000000
B2   B   0.555743169410238   0.277590163923090   0.130086111182464   1.0000000
B2   B   0.888907377790030   0.277814755580067   0.123775368364125   1.0000000
B2   B   0.055505710127516   0.444539910971382   0.625978903714093   1.0000000
B2   B   0.222091297160619   0.944182594321259   0.625505845406423   1.0000000
B2   B   0.555518577753313   0.944425955543298   0.626224631635858   1.0000000
B2   B   0.388321958590497   0.445011374742831   0.611830583497906   1.0000000
B2   B   0.888907377790030   0.944425955543298   0.626224631635858   1.0000000
B2   B   0.055505710127516   0.944299132489479   0.124021096285886   1.0000000
B2   B   0.722660277638076   0.444647244733063   0.622887933432865   1.0000000
B2   B   0.388793422361946   0.944299132489479   0.124021096285886   1.0000000
B2   B   0.221986967095001   0.444647244733063   0.127112066567149   1.0000000
B2   B   0.222091297160619   0.611242036172710   0.124494154593593   1.0000000
B2   B   0.556689416152334   0.445011374742831   0.138169416502106   1.0000000
B2   B   0.722234990362245   0.944469980724484   0.123827147570768   1.0000000
B2   B   0.889034200843849   0.444539910971382   0.124021096285886   1.0000000
B2   B   0.055590538680052   0.611181077360106   0.626073154721151   1.0000000
B2   B   0.221986967095001   0.110673055695258   0.622887933432865   1.0000000
B2   B   0.722660277638076   0.611346366238316   0.622887933432865   1.0000000
B2   B   0.555535202203518   0.110967797392616   0.625172738931369   1.0000000
B2   B   0.888863352608844   0.111098342971098   0.626172852429225   1.0000000


