data_1
_audit_creation_method   'vasp2cif'
_cell_length_a    17.52789999999977
_cell_length_b    17.52789999999977
_cell_length_c    15.0
_cell_angle_alpha    90.0
_cell_angle_beta    90.0
_cell_angle_gamma    119.99999999999916

_symmetry_space_group_name_H-M    'P 1'
loop_
_atom_site_label
_atom_site_type_symbol
_atom_site_fract_x
_atom_site_fract_y
_atom_site_fract_z
_atom_site_occupancy
B2   B   0.905040486335295   0.952577390658603   0.111006436188479   1.0000000
B2   B   0.904747472677871   0.095254306257130   0.111039679745234   1.0000000
B2   B   0.904741907981502   0.238060194084747   0.111041467228829   1.0000000
B2   B   0.905068123008545   0.381050495264879   0.111008521253372   1.0000000
B2   B   0.905789028206233   0.524081848608402   0.111039326608851   1.0000000
B2   B   0.905664571957501   0.667101827707926   0.111084091853924   1.0000000
B2   B   0.905751489102814   0.810235758034731   0.111044965270915   1.0000000
B2   B   0.047700414105611   0.952301317516389   0.111010392808926   1.0000000
B2   B   0.047424331215397   0.094961206991706   0.111006434674476   1.0000000
B2   B   0.047383025506439   0.237989515546386   0.110998022206529   1.0000000
B2   B   0.047433180614137   0.381037840708052   0.111017070564160   1.0000000
B2   B   0.047690886442357   0.523968568022171   0.111013347179610   1.0000000
B2   B   0.048110665882432   0.666941598136916   0.111035740473327   1.0000000
B2   B   0.048117604627633   0.809728601907773   0.111006023460988   1.0000000
B2   B   0.190273129792223   0.951884094089367   0.111006020575986   1.0000000
B2   B   0.189766000611269   0.094250249276184   0.111044961666914   1.0000000
B2   B   0.189994525646146   0.237791108425853   0.110988886600930   1.0000000
B2   B   0.190007836178605   0.380818325354600   0.110996430437074   1.0000000
B2   B   0.189784908198369   0.524090304947325   0.111040677035314   1.0000000
B2   B   0.190285093399623   0.666927105415537   0.111049233213549   1.0000000
B2   B   0.190475410350319   0.809526190052678   0.110995692378950   1.0000000
B2   B   0.333060019362086   0.951890891858569   0.111035742594333   1.0000000
B2   B   0.332899965093075   0.094337108646499   0.111084090720921   1.0000000
B2   B   0.331836203270209   0.235863920303101   0.111033980695236   1.0000000
B2   B   0.332535577652429   0.380611855566715   0.111015745736034   1.0000000
B2   B   0.331819870430648   0.524520154549176   0.111002579576211   1.0000000
B2   B   0.332868073451063   0.667133855482934   0.111066088135898   1.0000000
B2   B   0.333074545025463   0.809716647856377   0.111049234742544   1.0000000
B2   B   0.476033047143828   0.952310778490645   0.111013354076606   1.0000000
B2   B   0.475919834291597   0.094212328729763   0.111039334896849   1.0000000
B2   B   0.475450093936535   0.235857448823939   0.111052301279241   1.0000000
B2   B   0.474075596869434   0.376786576708961   0.111052113171443   1.0000000
B2   B   0.474078153670476   0.525923389369524   0.111081974470428   1.0000000
B2   B   0.475481578537828   0.668181997619351   0.111002580003212   1.0000000
B2   B   0.475911462389672   0.810217186677626   0.111040684666316   1.0000000
B2   B   0.618963918641948   0.952568656190861   0.111017074312159   1.0000000
B2   B   0.618951208885122   0.094933478074454   0.111008524331372   1.0000000
B2   B   0.619245183515842   0.237810800709379   0.111027223937141   1.0000000
B2   B   0.619475016344270   0.380526735822732   0.111018038790281   1.0000000
B2   B   0.623215287977038   0.525926178992569   0.111052111539440   1.0000000
B2   B   0.619389774126287   0.667465994602573   0.111015743090037   1.0000000
B2   B   0.619183342470404   0.809993939369389   0.110996431611075   1.0000000
B2   B   0.762012209844608   0.952618758875561   0.110998029540531   1.0000000
B2   B   0.761941558276254   0.095259836057502   0.111041469571829   1.0000000
B2   B   0.762039207118760   0.237962424354245   0.111051533053971   1.0000000
B2   B   0.762190760145625   0.380756492534156   0.111027218818143   1.0000000
B2   B   0.764144206322062   0.524551741646464   0.111052297972247   1.0000000
B2   B   0.764137901451898   0.668165555711786   0.111033984821237   1.0000000
B2   B   0.762210548544154   0.810007130226853   0.110988894801929   1.0000000
C2   C   0.523803158174939   0.476198699514061   0.111139051214581   1.0000000
N2   N   0.952669863358985   0.905024082240734   0.111009233706943   1.0000000
N2   N   0.952374498234585   0.047627231604414   0.111004860634102   1.0000000
N2   N   0.952358090789951   0.190474398128776   0.111018647878959   1.0000000
N2   N   0.952340944360133   0.333317281117874   0.111004392187561   1.0000000
N2   N   0.952642648629740   0.476194770834532   0.110979807806495   1.0000000
N2   N   0.952717105964064   0.619118076825076   0.111042534016166   1.0000000
N2   N   0.952734278201609   0.762139934872391   0.111038009111080   1.0000000
N2   N   0.095285371789029   0.904716355684971   0.110968537093664   1.0000000
N2   N   0.094977658940261   0.047331856765012   0.111009246117943   1.0000000
N2   N   0.095198846447398   0.190421003736696   0.110969589946106   1.0000000
N2   N   0.095177221278797   0.333326415882065   0.110984000420015   1.0000000
N2   N   0.094948369348523   0.476201898582239   0.111009611819585   1.0000000
N2   N   0.095243134608437   0.619127307785222   0.111015675789739   1.0000000
N2   N   0.095383324306640   0.761985431322655   0.110985287540948   1.0000000
N2   N   0.238016190172347   0.904618264413356   0.110985285789951   1.0000000
N2   N   0.237861836487606   0.047267437358394   0.111038006653078   1.0000000
N2   N   0.237375685420862   0.189649086273663   0.111011082468769   1.0000000
N2   N   0.237918177850627   0.333244214700323   0.110981738614777   1.0000000
N2   N   0.237345685930504   0.476265979216722   0.110999880139695   1.0000000
N2   N   0.237820060522505   0.619150975739998   0.111047766838224   1.0000000
N2   N   0.238016080941941   0.761985585586059   0.111013501387774   1.0000000
N2   N   0.380874324541777   0.904758506022561   0.111015678579735   1.0000000
N2   N   0.380883595230925   0.047284373888941   0.111042543174166   1.0000000
N2   N   0.380460422861612   0.189465898208503   0.111055539724095   1.0000000
N2   N   0.379372876413548   0.331254086931643   0.111003356507912   1.0000000
N2   N   0.379351218933132   0.476639646716538   0.111005498128006   1.0000000
N2   N   0.380444583283156   0.619557210200840   0.110996545359487   1.0000000
N2   N   0.380850826661004   0.762181929559493   0.111047770366225   1.0000000
N2   N   0.523799894545761   0.905053693523476   0.111009619480578   1.0000000
N2   N   0.523806963853466   0.047358812958259   0.110979813262497   1.0000000
N2   N   0.523736919325989   0.189672717084493   0.111029164068926   1.0000000
N2   N   0.523372920560096   0.331263962218686   0.111005431569097   1.0000000
N2   N   0.523361839120458   0.620650296829871   0.111005496731008   1.0000000
N2   N   0.523735664532280   0.762656325531498   0.110999887903696   1.0000000
N2   N   0.666675302155935   0.904824591122198   0.110984001495016   1.0000000
N2   N   0.666684498652128   0.047660817411865   0.111004395552563   1.0000000
N2   N   0.666666333037156   0.190456558894168   0.111021346390232   1.0000000
N2   N   0.666763423880373   0.333238192549625   0.110999170244938   1.0000000
N2   N   0.668737830177319   0.476628831161900   0.111005431014092   1.0000000
N2   N   0.668747792244354   0.620628848315462   0.111003350055914   1.0000000
N2   N   0.666757395916682   0.762083432627367   0.110981737989776   1.0000000
N2   N   0.809580664375302   0.904802860802602   0.110969601147109   1.0000000
N2   N   0.809527369850225   0.047643700636051   0.111018654141960   1.0000000
N2   N   0.809526610078746   0.190475087065254   0.111031283390698   1.0000000
N2   N   0.809544990931828   0.333335323808847   0.111021341436236   1.0000000
N2   N   0.810328605048509   0.476264766803007   0.111029153186928   1.0000000
N2   N   0.810535859802493   0.619541354103388   0.111055539404095   1.0000000
N2   N   0.810352671886340   0.762626042275133   0.111011100137764   1.0000000


