data_1
_audit_creation_method   'vasp2cif'
_cell_length_a    14.93631414619966
_cell_length_b    14.936314146199727
_cell_length_c    13.341276283792837
_cell_angle_alpha    90.0
_cell_angle_beta    90.0
_cell_angle_gamma    119.99999999999984

_symmetry_space_group_name_H-M    'P 1'
loop_
_atom_site_label
_atom_site_type_symbol
_atom_site_fract_x
_atom_site_fract_y
_atom_site_fract_z
_atom_site_occupancy
S2   S   0.532491511345178   0.432912422339253   0.375000000000000   1.0000000
N2   N   0.111130774566768   0.055569021221470   0.124988243251946   1.0000000
N2   N   0.611134016627265   0.555597902932249   0.124474481354131   1.0000000
N2   N   0.444519782066778   0.055584244620733   0.124895737670172   1.0000000
N2   N   0.944468371044898   0.555564934883318   0.124909714202801   1.0000000
N2   N   0.777832944506919   0.055583138920124   0.124819940459397   1.0000000
N2   N   0.111157357944244   0.722245345638783   0.625125760578876   1.0000000
N2   N   0.444519782066778   0.722268870779380   0.625104262329821   1.0000000
N2   N   0.277758515964179   0.222213020659144   0.624984012559231   1.0000000
N2   N   0.777799255186045   0.722244980661531   0.625127159619617   1.0000000
N2   N   0.611166295373194   0.222218920281365   0.625221820743027   1.0000000
N2   N   0.944469987115182   0.222232648725657   0.625136655852908   1.0000000
N2   N   0.277847147151854   0.722254776924322   0.124894443180443   1.0000000
N2   N   0.111106404831890   0.222219869082609   0.124998498839689   1.0000000
N2   N   0.444504256835773   0.222234113278145   0.124865092318333   1.0000000
N2   N   0.611166295373194   0.722280708425157   0.124778179256973   1.0000000
N2   N   0.944468371044898   0.722236769494916   0.124909714202801   1.0000000
N2   N   0.777827758234333   0.222231233434937   0.124833031335690   1.0000000
N2   N   0.111156136621985   0.888917166896275   0.625099720407758   1.0000000
N2   N   0.444525071029483   0.888929202181406   0.625138758058906   1.0000000
N2   N   0.277758515964179   0.388878828638363   0.624984012559231   1.0000000
N2   N   0.611134016627265   0.388869447028344   0.625525518645868   1.0000000
N2   N   0.777827758234333   0.888929858132725   0.625166968664310   1.0000000
N2   N   0.944475661494149   0.388899263610406   0.625119691621198   1.0000000
N2   N   0.111130774566768   0.388895086678627   0.124988243251946   1.0000000
N2   N   0.277847147151854   0.888925703560862   0.124894443180443   1.0000000
N2   N   0.611183849856766   0.888939994386727   0.124822262018688   1.0000000
N2   N   0.444391084141386   0.388862208737361   0.123719831638358   1.0000000
N2   N   0.944475661494149   0.888909731217072   0.124880308378801   1.0000000
N2   N   0.777799255186045   0.388887607857835   0.124872840380383   1.0000000
N2   N   0.277832893857204   0.555580216041600   0.624984207838118   1.0000000
N2   N   0.111130774566768   0.055569021221470   0.625011756748054   1.0000000
N2   N   0.611134016627265   0.555597902932249   0.625525518645868   1.0000000
N2   N   0.444519782066778   0.055584244620733   0.625104262329821   1.0000000
N2   N   0.944468371044898   0.555564934883318   0.625090285797199   1.0000000
N2   N   0.111156136621985   0.555572303059039   0.124900279592243   1.0000000
N2   N   0.777832944506919   0.055583138920124   0.625180059540603   1.0000000
N2   N   0.277832893857204   0.055586011148946   0.125015792161883   1.0000000
N2   N   0.444504256835773   0.555603476890964   0.124865092318333   1.0000000
N2   N   0.777780512704308   0.555556923018821   0.124923357212267   1.0000000
N2   N   0.611183849856766   0.055577188803369   0.124822262018688   1.0000000
N2   N   0.444504256835773   0.555603476890964   0.625134907681666   1.0000000
N2   N   0.944469987115182   0.055570671722861   0.124863344147092   1.0000000
N2   N   0.277847147151854   0.722254776924322   0.625105556819558   1.0000000
N2   N   0.111106404831890   0.222219869082609   0.625001501160312   1.0000000
N2   N   0.444504256835773   0.222234113278145   0.625134907681666   1.0000000
N2   N   0.611166295373194   0.722280708425157   0.625221820743027   1.0000000
N2   N   0.944468371044898   0.722236769494916   0.625090285797199   1.0000000
N2   N   0.777827758234333   0.222231233434937   0.625166968664310   1.0000000
N2   N   0.111157357944244   0.722245345638783   0.124874239421125   1.0000000
N2   N   0.444519782066778   0.722268870779380   0.124895737670172   1.0000000
N2   N   0.277758515964179   0.222213020659144   0.125015987440769   1.0000000
N2   N   0.777799255186045   0.722244980661531   0.124872840380383   1.0000000
N2   N   0.611166295373194   0.222218920281365   0.124778179256973   1.0000000
N2   N   0.944469987115182   0.222232648725657   0.124863344147092   1.0000000
N2   N   0.111130774566768   0.388895086678627   0.625011756748054   1.0000000
N2   N   0.277847147151854   0.888925703560862   0.625105556819558   1.0000000
N2   N   0.611183849856766   0.888939994386727   0.625177737981312   1.0000000
N2   N   0.444391084141386   0.388862208737361   0.626280168361642   1.0000000
N2   N   0.944475661494149   0.888909731217072   0.625119691621198   1.0000000
N2   N   0.111156136621985   0.888917166896275   0.124900279592243   1.0000000
N2   N   0.777799255186045   0.388887607857835   0.625127159619617   1.0000000
N2   N   0.444525071029483   0.888929202181406   0.124861241941094   1.0000000
N2   N   0.277758515964179   0.388878828638363   0.125015987440769   1.0000000
N2   N   0.277832893857204   0.555580216041600   0.125015792161883   1.0000000
N2   N   0.611134016627265   0.388869447028344   0.124474481354131   1.0000000
N2   N   0.777827758234333   0.888929858132725   0.124833031335690   1.0000000
N2   N   0.944475661494149   0.388899263610406   0.124880308378801   1.0000000
N2   N   0.111156136621985   0.555572303059039   0.625099720407758   1.0000000
N2   N   0.277832893857204   0.055586011148946   0.624984207838118   1.0000000
N2   N   0.777780512704308   0.555556923018821   0.625076642787733   1.0000000
N2   N   0.611183849856766   0.055577188803369   0.625177737981312   1.0000000
N2   N   0.944469987115182   0.055570671722861   0.625136655852908   1.0000000
N2   N   0.056073181968119   0.111252250998728   0.375000000000000   1.0000000
N2   N   0.556649772958517   0.617854474367181   0.375000000000000   1.0000000
N2   N   0.388112124370927   0.106143131626784   0.375000000000000   1.0000000
N2   N   0.888514403990945   0.610923868662148   0.375000000000000   1.0000000
N2   N   0.723406602788190   0.111079961731097   0.375000000000000   1.0000000
N2   N   0.055596513788136   0.777797435294643   0.875000000000000   1.0000000
N2   N   0.388924955220096   0.777796519333474   0.875000000000000   1.0000000
N2   N   0.222268262269744   0.277800797801536   0.875000000000000   1.0000000
N2   N   0.722269285356421   0.777796454734690   0.875000000000000   1.0000000
N2   N   0.555598727799289   0.277802040494336   0.875000000000000   1.0000000
N2   N   0.888938128420684   0.277806342054365   0.875000000000000   1.0000000
N2   N   0.221410753851626   0.777372043592478   0.375000000000000   1.0000000
N2   N   0.056073181968119   0.278154264302726   0.375000000000000   1.0000000
N2   N   0.383239999787292   0.263683966465214   0.375000000000000   1.0000000
N2   N   0.556080127494692   0.780867844473486   0.375000000000000   1.0000000
N2   N   0.889818042997462   0.778746956779969   0.375000000000000   1.0000000
N2   N   0.723674406937889   0.276825101420792   0.375000000000000   1.0000000
N2   N   0.055598668097986   0.944463021573582   0.875000000000000   1.0000000
N2   N   0.388924955220096   0.944461769219959   0.875000000000000   1.0000000
N2   N   0.222263233003584   0.444468916089463   0.875000000000000   1.0000000
N2   N   0.555605030818712   0.444469182076017   0.875000000000000   1.0000000
N2   N   0.722265897020906   0.944464400936036   0.875000000000000   1.0000000
N2   N   0.888939056702779   0.444472144166412   0.875000000000000   1.0000000
N2   N   0.055253936409546   0.444915941344509   0.375000000000000   1.0000000
N2   N   0.221304589554800   0.942711268399225   0.375000000000000   1.0000000
N2   N   0.556029752050113   0.944681542691724   0.375000000000000   1.0000000
N2   N   0.383239999787291   0.452889366655413   0.375000000000000   1.0000000
N2   N   0.889971833862495   0.945395284056837   0.375000000000000   1.0000000
N2   N   0.724511006573369   0.443705945866552   0.375000000000000   1.0000000
N2   N   0.222257646609216   0.611131464717419   0.875000000000000   1.0000000
N2   N   0.055603653495369   0.111132572261244   0.875000000000000   1.0000000
N2   N   0.555598727799289   0.611130020638288   0.875000000000000   1.0000000
N2   N   0.388926817608252   0.111127964584193   0.875000000000000   1.0000000
N2   N   0.888939432711255   0.611136383022303   0.875000000000000   1.0000000
N2   N   0.054958719084740   0.611123077374480   0.375000000000000   1.0000000
N2   N   0.722265897020906   0.111134829418205   0.875000000000000   1.0000000
N2   N   0.220248877453145   0.107975892677206   0.375000000000000   1.0000000
N2   N   0.388112124370927   0.615302326077486   0.375000000000000   1.0000000
N2   N   0.724511006573369   0.614138394040161   0.375000000000000   1.0000000
N2   N   0.556080127494692   0.108545616354543   0.375000000000000   1.0000000
N2   N   0.388926817608252   0.611132186357396   0.875000000000000   1.0000000
N2   N   0.890006056273395   0.111669694803366   0.375000000000000   1.0000000
N2   N   0.222257494003536   0.777795413668436   0.875000000000000   1.0000000
N2   N   0.055603653495369   0.277804414567460   0.875000000000000   1.0000000
N2   N   0.388931194479641   0.277794910430500   0.875000000000000   1.0000000
N2   N   0.555594953550766   0.777795776190841   0.875000000000000   1.0000000
N2   N   0.888939056702779   0.777800245869701   0.875000000000000   1.0000000
N2   N   0.722269285356421   0.277806163955066   0.875000000000000   1.0000000
N2   N   0.054958719084740   0.777168975043596   0.375000000000000   1.0000000
N2   N   0.388399689547807   0.778914541873618   0.375000000000000   1.0000000
N2   N   0.222312759822759   0.277823046578044   0.375000000000000   1.0000000
N2   N   0.723674406937889   0.780182638850432   0.375000000000000   1.0000000
N2   N   0.556649772958517   0.272128631924673   0.375000000000000   1.0000000
N2   N   0.889971833862495   0.277909883138993   0.375000000000000   1.0000000
N2   N   0.055598668097986   0.444468979857734   0.875000000000000   1.0000000
N2   N   0.222257646609216   0.944459515225130   0.875000000000000   1.0000000
N2   N   0.555592636014838   0.944462984674083   0.875000000000000   1.0000000
N2   N   0.388931194479641   0.444469617382478   0.875000000000000   1.0000000
N2   N   0.888938128420684   0.944465119699655   0.875000000000000   1.0000000
N2   N   0.055253936409546   0.943671328398366   0.375000000000000   1.0000000
N2   N   0.722273526815439   0.444472696586468   0.875000000000000   1.0000000
N2   N   0.388399689547807   0.942818481007525   0.375000000000000   1.0000000
N2   N   0.220248877453145   0.445606318109274   0.375000000000000   1.0000000
N2   N   0.221304589554800   0.611926654488911   0.375000000000000   1.0000000
N2   N   0.723406602788190   0.945659974390423   0.375000000000000   1.0000000
N2   N   0.889818042997462   0.444404419550827   0.375000000000000   1.0000000
N2   N   0.055596513788136   0.611132411826829   0.875000000000000   1.0000000
N2   N   0.222263233003584   0.111127650247449   0.875000000000000   1.0000000
N2   N   0.722273526815439   0.611134163562306   0.875000000000000   1.0000000
N2   N   0.555594953550766   0.111132510693261   0.875000000000000   1.0000000
N2   N   0.888939056847187   0.111136195090265   0.875000000000000   1.0000000
B2   B   0.110801036263220   0.054715545590913   0.375000000000000   1.0000000
B2   B   0.614520054254983   0.565911845435879   0.375000000000000   1.0000000
B2   B   0.444523845907079   0.053179105975228   0.375000000000000   1.0000000
B2   B   0.944199826074270   0.555441767009684   0.375000000000000   1.0000000
B2   B   0.779240734508449   0.056287033920893   0.375000000000000   1.0000000
B2   B   0.111157927623524   0.722245630478427   0.875000000000000   1.0000000
B2   B   0.444465888749913   0.722192402870084   0.875000000000000   1.0000000
B2   B   0.277875823685348   0.222292745057643   0.875000000000000   1.0000000
B2   B   0.777793770718581   0.722206040711694   0.875000000000000   1.0000000
B2   B   0.611115124087378   0.222271816105907   0.875000000000000   1.0000000
B2   B   0.944531732596264   0.222267210816981   0.875000000000000   1.0000000
B2   B   0.277305543361679   0.722540791307139   0.375000000000000   1.0000000
B2   B   0.112632350678774   0.222982842006051   0.375000000000000   1.0000000
B2   B   0.443194337954841   0.217807128053796   0.375000000000000   1.0000000
B2   B   0.612224690640573   0.726687543835346   0.375000000000000   1.0000000
B2   B   0.944199826074270   0.722091392397915   0.375000000000000   1.0000000
B2   B   0.779213726341558   0.221967066962929   0.375000000000000   1.0000000
B2   B   0.111171609448751   0.888933444758118   0.875000000000000   1.0000000
B2   B   0.444466526942161   0.888899930137749   0.875000000000000   1.0000000
B2   B   0.277875823685348   0.388916411961033   0.875000000000000   1.0000000
B2   B   0.611095342962928   0.388915540850537   0.875000000000000   1.0000000
B2   B   0.777815424023967   0.888887663315355   0.875000000000000   1.0000000
B2   B   0.944505520781931   0.388921968342775   0.875000000000000   1.0000000
B2   B   0.110801036263227   0.389418824005636   0.375000000000000   1.0000000
B2   B   0.277305543361679   0.888098085387875   0.375000000000000   1.0000000
B2   B   0.612206522673954   0.890611860564575   0.375000000000000   1.0000000
B2   B   0.945042484187336   0.889455483499253   0.375000000000000   1.0000000
B2   B   0.779409338407553   0.388041566913463   0.375000000000000   1.0000000
B2   B   0.277838359837713   0.555548245889807   0.875000000000000   1.0000000
B2   B   0.111208549096901   0.055619490774188   0.875000000000000   1.0000000
B2   B   0.611095342962928   0.555513135445718   0.875000000000000   1.0000000
B2   B   0.444465888749913   0.055606819213165   0.875000000000000   1.0000000
B2   B   0.944482505165272   0.555576799501685   0.875000000000000   1.0000000
B2   B   0.110687757928431   0.555842024766696   0.375000000000000   1.0000000
B2   B   0.777827844632459   0.055580588982894   0.875000000000000   1.0000000
B2   B   0.277153378926465   0.053895125549273   0.375000000000000   1.0000000
B2   B   0.443194337954841   0.558720543234373   0.375000000000000   1.0000000
B2   B   0.777347702209020   0.555340517771178   0.375000000000000   1.0000000
B2   B   0.612206522673954   0.054927995442702   0.375000000000000   1.0000000
B2   B   0.444463093450685   0.555509711996121   0.875000000000000   1.0000000
B2   B   0.945775434653697   0.056427444626032   0.375000000000000   1.0000000
B2   B   0.277818735584602   0.722225736061538   0.875000000000000   1.0000000
B2   B   0.111231589158957   0.222282461246146   0.875000000000000   1.0000000
B2   B   0.444463093450685   0.222286714787899   0.875000000000000   1.0000000
B2   B   0.611115124087378   0.722176641314799   0.875000000000000   1.0000000
B2   B   0.944482505165272   0.722239038996924   0.875000000000000   1.0000000
B2   B   0.777815424023967   0.222261094041941   0.875000000000000   1.0000000
B2   B   0.110591896354269   0.721962614843799   0.375000000000000   1.0000000
B2   B   0.444523845907079   0.724678073265186   0.375000000000000   1.0000000
B2   B   0.277934813952205   0.220866152961430   0.375000000000000   1.0000000
B2   B   0.779409338407553   0.724701104827420   0.375000000000000   1.0000000
B2   B   0.612224690640573   0.218870480138557   0.375000000000000   1.0000000
B2   B   0.945775434653697   0.222681323361000   0.375000000000000   1.0000000
B2   B   0.111208549096901   0.388922391656041   0.875000000000000   1.0000000
B2   B   0.277818735584602   0.888926332856393   0.875000000000000   1.0000000
B2   B   0.611130681578470   0.888879806003638   0.875000000000000   1.0000000
B2   B   0.444471172624227   0.388902252978778   0.875000000000000   1.0000000
B2   B   0.944505520781931   0.888916885772486   0.875000000000000   1.0000000
B2   B   0.110687757928431   0.888179066495064   0.375000000000000   1.0000000
B2   B   0.777793770718581   0.388921063340216   0.875000000000000   1.0000000
B2   B   0.444688702876389   0.889011018104858   0.375000000000000   1.0000000
B2   B   0.277934813952205   0.390401994324103   0.375000000000000   1.0000000
B2   B   0.277153378926465   0.556591586710520   0.375000000000000   1.0000000
B2   B   0.614520054254983   0.381941542152424   0.375000000000000   1.0000000
B2   B   0.779213726341558   0.890579992711958   0.375000000000000   1.0000000
B2   B   0.945042484187336   0.388920334021413   0.375000000000000   1.0000000
B2   B   0.111171609448751   0.555571498023962   0.875000000000000   1.0000000
B2   B   0.277838359837713   0.055623447281241   0.875000000000000   1.0000000
B2   B   0.777782130857574   0.555557732095451   0.875000000000000   1.0000000
B2   B   0.611130681578470   0.055584208908160   0.875000000000000   1.0000000
B2   B   0.944531732596264   0.055597855112618   0.875000000000000   1.0000000
B2   B   0.055695836506990   0.111226712136146   0.125230950032365   1.0000000
B2   B   0.555445994561909   0.610961857528093   0.125115800076483   1.0000000
B2   B   0.388997122943500   0.111338558619835   0.125393708179728   1.0000000
B2   B   0.888809594549711   0.611071463941524   0.125049920290476   1.0000000
B2   B   0.722263079423167   0.111130975506169   0.124991772821955   1.0000000
B2   B   0.055613330394627   0.777842678949998   0.624971855623746   1.0000000
B2   B   0.388996595053062   0.777774261014592   0.624922628129067   1.0000000
B2   B   0.222425134112690   0.277879233723013   0.624342925701528   1.0000000
B2   B   0.722177215707731   0.777751148271927   0.624996398592829   1.0000000
B2   B   0.555445994561909   0.277817470367152   0.624884199923517   1.0000000
B2   B   0.888941729669349   0.277775045549633   0.624976899823274   1.0000000
B2   B   0.222334857818343   0.777834095575840   0.125039160627205   1.0000000
B2   B   0.055695836506990   0.277802457704180   0.125230950032365   1.0000000
B2   B   0.388967538116954   0.277997875744544   0.125989182780199   1.0000000
B2   B   0.555586176598972   0.777742703354428   0.125049884058308   1.0000000
B2   B   0.888864780852230   0.777789967974991   0.125026418263278   1.0000000
B2   B   0.722177215707731   0.277759400769139   0.125003601407172   1.0000000
B2   B   0.055660914633353   0.944578330102140   0.624882277688450   1.0000000
B2   B   0.388996595053062   0.944555667371800   0.624922628129067   1.0000000
B2   B   0.222402979978739   0.444378922997438   0.624488914480550   1.0000000
B2   B   0.555218049116749   0.444275691225039   0.624474480569126   1.0000000
B2   B   0.722263079423167   0.944465437250333   0.625008227178046   1.0000000
B2   B   0.888864780852230   0.444408146210574   0.624973581736722   1.0000000
B2   B   0.055660914633353   0.444415917864549   0.125117722311550   1.0000000
B2   B   0.222361426388354   0.944627851925150   0.125159087147334   1.0000000
B2   B   0.555622171666991   0.944477752500161   0.125007086144662   1.0000000
B2   B   0.388967538116954   0.444302995705746   0.125989182780199   1.0000000
B2   B   0.888941729669349   0.944500017453052   0.125023100176726   1.0000000
B2   B   0.722005498240995   0.444346370228614   0.124975077511384   1.0000000
B2   B   0.222361426388354   0.611066907796540   0.624840912852667   1.0000000
B2   B   0.055695836506990   0.111226712136146   0.624769049967635   1.0000000
B2   B   0.555445994561909   0.610961857528093   0.624884199923517   1.0000000
B2   B   0.388997122943500   0.111338558619835   0.624606291820271   1.0000000
B2   B   0.888809594549711   0.611071463941524   0.624950079709524   1.0000000
B2   B   0.055613330394627   0.611103984777964   0.125028144376254   1.0000000
B2   B   0.722263079423167   0.111130975506169   0.625008227178046   1.0000000
B2   B   0.222402979978739   0.111357390314637   0.125511085519449   1.0000000
B2   B   0.388997122943500   0.610991897657007   0.125393708179728   1.0000000
B2   B   0.722005498240995   0.610992461345724   0.124975077511384   1.0000000
B2   B   0.555586176598972   0.111176806577880   0.125049884058308   1.0000000
B2   B   0.388997122943500   0.610991897657007   0.624606291820271   1.0000000
B2   B   0.888971765935859   0.111152549634601   0.125022554879335   1.0000000
B2   B   0.222334857818343   0.777834095575840   0.624960839372794   1.0000000
B2   B   0.055695836506990   0.277802457704180   0.624769049967635   1.0000000
B2   B   0.388967538116954   0.277997875744544   0.624010817219794   1.0000000
B2   B   0.555586176598972   0.777742703354428   0.624950115941693   1.0000000
B2   B   0.888864780852230   0.777789967974991   0.624973581736722   1.0000000
B2   B   0.722177215707731   0.277759400769139   0.624996398592829   1.0000000
B2   B   0.055613330394627   0.777842678949998   0.125028144376254   1.0000000
B2   B   0.388996595053062   0.777774261014592   0.125077371870933   1.0000000
B2   B   0.222425134112690   0.277879233723013   0.125657074298472   1.0000000
B2   B   0.722177215707731   0.777751148271927   0.125003601407172   1.0000000
B2   B   0.555445994561909   0.277817470367152   0.125115800076483   1.0000000
B2   B   0.888941729669349   0.277775045549633   0.125023100176726   1.0000000
B2   B   0.055660914633353   0.444415917864549   0.624882277688450   1.0000000
B2   B   0.222361426388354   0.944627851925150   0.624840912852667   1.0000000
B2   B   0.555622171666991   0.944477752500161   0.624992913855338   1.0000000
B2   B   0.388967538116954   0.444302995705746   0.624010817219794   1.0000000
B2   B   0.888941729669349   0.944500017453052   0.624976899823274   1.0000000
B2   B   0.055660914633353   0.944578330102140   0.125117722311550   1.0000000
B2   B   0.722005498240995   0.444346370228614   0.625024922488615   1.0000000
B2   B   0.388996595053062   0.944555667371800   0.125077371870933   1.0000000
B2   B   0.222402979978739   0.444378922997438   0.125511085519449   1.0000000
B2   B   0.222361426388354   0.611066907796540   0.125159087147334   1.0000000
B2   B   0.555218049116749   0.444275691225039   0.125525519430875   1.0000000
B2   B   0.722263079423167   0.944465437250333   0.124991772821955   1.0000000
B2   B   0.888864780852230   0.444408146210574   0.125026418263278   1.0000000
B2   B   0.055613330394627   0.611103984777964   0.624971855623746   1.0000000
B2   B   0.222402979978739   0.111357390314637   0.624488914480550   1.0000000
B2   B   0.722005498240995   0.610992461345724   0.625024922488615   1.0000000
B2   B   0.555586176598972   0.111176806577880   0.624950115941693   1.0000000
B2   B   0.888971765935859   0.111152549634601   0.624977445120672   1.0000000


