data_1
_audit_creation_method   'vasp2cif'
_cell_length_a    17.52789999999977
_cell_length_b    17.52789999999977
_cell_length_c    15.0
_cell_angle_alpha    90.0
_cell_angle_beta    90.0
_cell_angle_gamma    119.99999999999916

_symmetry_space_group_name_H-M    'P 1'
loop_
_atom_site_label
_atom_site_type_symbol
_atom_site_fract_x
_atom_site_fract_y
_atom_site_fract_z
_atom_site_occupancy
Al2   Al   0.526186458788642   0.625762973523828   0.111636256309534   1.0000000
B2   B   0.908016979234839   0.954888745877088   0.111056009852979   1.0000000
B2   B   0.904365570232589   0.095102351061990   0.110905015613784   1.0000000
B2   B   0.903628607883513   0.237241501162708   0.110845540656224   1.0000000
B2   B   0.904451549355534   0.380119057505216   0.110823930660437   1.0000000
B2   B   0.907845048126521   0.523991961627473   0.111094372883261   1.0000000
B2   B   0.912321209222451   0.668869642236685   0.111393593366855   1.0000000
B2   B   0.911923286077150   0.813913501744569   0.111402578662683   1.0000000
B2   B   0.049792855152589   0.953374389474891   0.110947606050200   1.0000000
B2   B   0.046636932226967   0.094033354018794   0.110864438757469   1.0000000
B2   B   0.044883046808230   0.236250089429981   0.110851390646371   1.0000000
B2   B   0.044812092439357   0.379620268496335   0.110755202245834   1.0000000
B2   B   0.046398183387543   0.523556710213264   0.110661675233900   1.0000000
B2   B   0.049562577912731   0.667644611145806   0.110793484277093   1.0000000
B2   B   0.050746631073518   0.811084981626178   0.111001927514157   1.0000000
B2   B   0.191075005411632   0.952305194976719   0.110842042390054   1.0000000
B2   B   0.188884233816139   0.092666843977400   0.110937658430991   1.0000000
B2   B   0.184946531513919   0.232729641210585   0.110991781355532   1.0000000
B2   B   0.184754223481941   0.378050666845481   0.111205118984255   1.0000000
B2   B   0.184891004690087   0.523281685515247   0.111158817136373   1.0000000
B2   B   0.187832407657965   0.667577105193994   0.110887729612333   1.0000000
B2   B   0.190811949341692   0.810502912231152   0.110708121730343   1.0000000
B2   B   0.332932256221110   0.952562782637436   0.110721901879034   1.0000000
B2   B   0.332326207080716   0.092875030159801   0.111006438967405   1.0000000
B2   B   0.327897114292074   0.230837118200246   0.111073473810824   1.0000000
B2   B   0.321510135274289   0.370890392821639   0.111439098632649   1.0000000
B2   B   0.322512346569359   0.522046160375010   0.111973437421160   1.0000000
B2   B   0.325692335745054   0.668310994037594   0.111741428766490   1.0000000
B2   B   0.331665947758942   0.811325284428337   0.110979169636444   1.0000000
B2   B   0.475581303217460   0.954721105711305   0.110692733605468   1.0000000
B2   B   0.475842648832049   0.093441061942635   0.110833246198007   1.0000000
B2   B   0.475171004857991   0.230728227255444   0.111071821165747   1.0000000
B2   B   0.466121803795319   0.356957766253398   0.110819774885025   1.0000000
B2   B   0.445880125459543   0.510581096960354   0.110216306359419   1.0000000
B2   B   0.462573616123529   0.680637177594259   0.112271441366407   1.0000000
B2   B   0.474296060103369   0.816783540425263   0.111675105963244   1.0000000
B2   B   0.619307381302979   0.954012788535535   0.111025504346760   1.0000000
B2   B   0.619265175863598   0.095257164304866   0.110683087897936   1.0000000
B2   B   0.619735584921991   0.236584236697740   0.110991477903763   1.0000000
B2   B   0.621437480129719   0.378820437057176   0.110818909144826   1.0000000
B2   B   0.645913168874915   0.537021414124592   0.109693104385287   1.0000000
B2   B   0.646067660935890   0.678177547984974   0.110668795460225   1.0000000
B2   B   0.620268280355088   0.812297703523853   0.111866063445272   1.0000000
B2   B   0.763301362707229   0.953950545555529   0.111155866947335   1.0000000
B2   B   0.761932701869484   0.095399581189149   0.110870246659916   1.0000000
B2   B   0.762063748889676   0.237414723208834   0.110904858868226   1.0000000
B2   B   0.763705713499962   0.380114707004360   0.111114036003543   1.0000000
B2   B   0.770411660663678   0.524875966494286   0.111077110477585   1.0000000
B2   B   0.780293768572650   0.674821688434940   0.110839789818781   1.0000000
B2   B   0.770419288672851   0.816363666623735   0.111443411233325   1.0000000
N2   N   0.956201139507119   0.907755360233326   0.111093500622538   1.0000000
N2   N   0.952861570964723   0.048540950019494   0.110860670520675   1.0000000
N2   N   0.950694163755024   0.189564724667515   0.110840226652666   1.0000000
N2   N   0.950633553847928   0.331973212384393   0.110698003626955   1.0000000
N2   N   0.952509957676987   0.475117828547130   0.110742072695942   1.0000000
N2   N   0.956079588452441   0.619194419649456   0.111078051609586   1.0000000
N2   N   0.957070390868581   0.763945899062513   0.111296673635322   1.0000000
N2   N   0.096907816058845   0.905617454458588   0.110875222579878   1.0000000
N2   N   0.094988239796001   0.047211140206642   0.110832277081346   1.0000000
N2   N   0.091559767279955   0.187763352005583   0.110822855860611   1.0000000
N2   N   0.090954599840752   0.330979778903054   0.110855623504987   1.0000000
N2   N   0.091297797988158   0.474655963573572   0.110701657303393   1.0000000
N2   N   0.094131980115367   0.618763599363128   0.110592093851462   1.0000000
N2   N   0.096648761339819   0.762645061481755   0.110748404852487   1.0000000
N2   N   0.238346306518576   0.905163953671871   0.110683771957844   1.0000000
N2   N   0.237713492367285   0.046585372589849   0.110909030259625   1.0000000
N2   N   0.234097317695225   0.186316840979623   0.110963934582321   1.0000000
N2   N   0.228867877614120   0.326087531484686   0.111215072822911   1.0000000
N2   N   0.229200447563233   0.473731394086389   0.111468287523277   1.0000000
N2   N   0.232101557395705   0.618797659369573   0.111247043666590   1.0000000
N2   N   0.236935798617364   0.762718316832219   0.110777028440818   1.0000000
N2   N   0.380506777410190   0.906130833024240   0.110683481411650   1.0000000
N2   N   0.380843198592648   0.046930373424355   0.110810633990474   1.0000000
N2   N   0.379609376327712   0.187015496006260   0.111073521839478   1.0000000
N2   N   0.373359879499469   0.324487552594779   0.111063090934023   1.0000000
N2   N   0.357265758793216   0.462845372025636   0.111869380428062   1.0000000
N2   N   0.369758927581807   0.620032565105918   0.112250313954238   1.0000000
N2   N   0.378290143610634   0.764468317548167   0.111483883021834   1.0000000
N2   N   0.524002194791419   0.909873303582610   0.110891917947650   1.0000000
N2   N   0.524253033564534   0.048368611975802   0.110557312234614   1.0000000
N2   N   0.524462732693822   0.187144519150313   0.111003995401543   1.0000000
N2   N   0.524339745074665   0.324243634594550   0.110895510516140   1.0000000
N2   N   0.522568088216727   0.772719325988364   0.112469364899490   1.0000000
N2   N   0.667818520775505   0.906951628453570   0.111354600871511   1.0000000
N2   N   0.667142312202737   0.048471939101257   0.110736998202563   1.0000000
N2   N   0.667265748022820   0.189959328414360   0.110800841656380   1.0000000
N2   N   0.668323979103681   0.331971953485858   0.111048528042701   1.0000000
N2   N   0.675423803497311   0.475859383180662   0.110385820246197   1.0000000
N2   N   0.689450364746180   0.628539952583633   0.109347949328050   1.0000000
N2   N   0.676939576094649   0.770767649514559   0.111555098393715   1.0000000
N2   N   0.814290262062392   0.909592957820377   0.111210945480283   1.0000000
N2   N   0.809731987291009   0.048356692748158   0.110924350476533   1.0000000
N2   N   0.809124641563051   0.189998333649911   0.110828059175536   1.0000000
N2   N   0.809842213855633   0.332239621525318   0.110962207070378   1.0000000
N2   N   0.813708407342517   0.475312305572238   0.111248650470611   1.0000000
N2   N   0.819492240122910   0.620707705525147   0.111415596777026   1.0000000
N2   N   0.819070197606909   0.768368556763465   0.111523903151817   1.0000000
Se2   Se   0.524505364159805   0.475218040725443   0.110830606805452   1.0000000


