data_1
_audit_creation_method   'vasp2cif'
_cell_length_a    14.93631414619966
_cell_length_b    14.936314146199727
_cell_length_c    13.341276283792837
_cell_angle_alpha    90.0
_cell_angle_beta    90.0
_cell_angle_gamma    119.99999999999984

_symmetry_space_group_name_H-M    'P 1'
loop_
_atom_site_label
_atom_site_type_symbol
_atom_site_fract_x
_atom_site_fract_y
_atom_site_fract_z
_atom_site_occupancy
P2   P   0.444444444444443   0.388888888888886   0.375000000000000   1.0000000
N2   N   0.111124683097828   0.055574323205171   0.125254680728640   1.0000000
N2   N   0.611068977764593   0.555528021677165   0.124004975556497   1.0000000
N2   N   0.444449640107341   0.055574323205171   0.125254680728640   1.0000000
N2   N   0.944436205071422   0.555550892121327   0.125104587029512   1.0000000
N2   N   0.777777777777779   0.055555555555557   0.124947693714404   1.0000000
N2   N   0.111111111111114   0.722222222222221   0.625010426964359   1.0000000
N2   N   0.444449640107341   0.722208650235508   0.624745319271360   1.0000000
N2   N   0.277805311656165   0.222264355568737   0.625995024443502   1.0000000
N2   N   0.777759010128163   0.722208650235508   0.624745319271360   1.0000000
N2   N   0.611116823112118   0.222216510221220   0.624890251188086   1.0000000
N2   N   0.944439205438865   0.222220325523791   0.624937609907574   1.0000000
N2   N   0.277782441212007   0.722218646283431   0.125104587029512   1.0000000
N2   N   0.111099687109112   0.222216510221220   0.125109748811911   1.0000000
N2   N   0.444459043912570   0.222264355568737   0.124004975556497   1.0000000
N2   N   0.611116823112118   0.722233646224223   0.125109748811911   1.0000000
N2   N   0.944436205071422   0.722218646283431   0.125104587029512   1.0000000
N2   N   0.777781120084925   0.222220325523791   0.125062390092433   1.0000000
N2   N   0.111114687049906   0.888897128261907   0.624895412970491   1.0000000
N2   N   0.444447285589821   0.888890309461576   0.624906622674655   1.0000000
N2   N   0.277805311656165   0.388874289420759   0.625995024443502   1.0000000
N2   N   0.611068977764593   0.388874289420759   0.625995024443502   1.0000000
N2   N   0.777781120084925   0.888894127894464   0.624937609907574   1.0000000
N2   N   0.944443023871752   0.388886047743507   0.624906622674655   1.0000000
N2   N   0.111124683097828   0.388883693225987   0.125254680728640   1.0000000
N2   N   0.277782441212007   0.888897128261907   0.125104587029512   1.0000000
N2   N   0.611113007809543   0.888894127894464   0.125062390092433   1.0000000
N2   N   0.444444444444443   0.388888888888886   0.117739580786480   1.0000000
N2   N   0.944443023871752   0.888890309461576   0.125093377325346   1.0000000
N2   N   0.777759010128163   0.388883693225987   0.125254680728640   1.0000000
N2   N   0.277790567072838   0.555542766260499   0.624872037732797   1.0000000
N2   N   0.111124683097828   0.055574323205171   0.624745319271360   1.0000000
N2   N   0.611068977764593   0.555528021677165   0.625995024443502   1.0000000
N2   N   0.444449640107341   0.055574323205171   0.624745319271360   1.0000000
N2   N   0.944436205071422   0.555550892121327   0.624895412970491   1.0000000
N2   N   0.111114687049906   0.555550892121327   0.125104587029512   1.0000000
N2   N   0.777777777777779   0.055555555555557   0.625052306285595   1.0000000
N2   N   0.277790567072838   0.055581134145675   0.125127962267198   1.0000000
N2   N   0.444459043912570   0.555528021677165   0.124004975556497   1.0000000
N2   N   0.777752199187659   0.555542766260499   0.125127962267198   1.0000000
N2   N   0.611113007809543   0.055552213248413   0.125062390092433   1.0000000
N2   N   0.444459043912570   0.555528021677165   0.625995024443502   1.0000000
N2   N   0.944439205438865   0.055552213248413   0.125062390092433   1.0000000
N2   N   0.277782441212007   0.722218646283431   0.624895412970491   1.0000000
N2   N   0.111099687109112   0.222216510221220   0.624890251188086   1.0000000
N2   N   0.444459043912570   0.222264355568737   0.625995024443502   1.0000000
N2   N   0.611116823112118   0.722233646224223   0.624890251188086   1.0000000
N2   N   0.944436205071422   0.722218646283431   0.624895412970491   1.0000000
N2   N   0.777781120084925   0.222220325523791   0.624937609907574   1.0000000
N2   N   0.111111111111114   0.722222222222221   0.124989573035643   1.0000000
N2   N   0.444449640107341   0.722208650235508   0.125254680728640   1.0000000
N2   N   0.277805311656165   0.222264355568737   0.124004975556497   1.0000000
N2   N   0.777759010128163   0.722208650235508   0.125254680728640   1.0000000
N2   N   0.611116823112118   0.222216510221220   0.125109748811911   1.0000000
N2   N   0.944439205438865   0.222220325523791   0.125062390092433   1.0000000
N2   N   0.111124683097828   0.388883693225987   0.624745319271360   1.0000000
N2   N   0.277782441212007   0.888897128261907   0.624895412970491   1.0000000
N2   N   0.611113007809543   0.888894127894464   0.624937609907574   1.0000000
N2   N   0.444444444444443   0.388888888888886   0.632260419213518   1.0000000
N2   N   0.944443023871752   0.888890309461576   0.624906622674655   1.0000000
N2   N   0.111114687049906   0.888897128261907   0.125104587029512   1.0000000
N2   N   0.777759010128163   0.388883693225987   0.624745319271360   1.0000000
N2   N   0.444447285589821   0.888890309461576   0.125093377325346   1.0000000
N2   N   0.277805311656165   0.388874289420759   0.124004975556497   1.0000000
N2   N   0.277790567072838   0.555542766260499   0.125127962267198   1.0000000
N2   N   0.611068977764593   0.388874289420759   0.124004975556497   1.0000000
N2   N   0.777781120084925   0.888894127894464   0.125062390092433   1.0000000
N2   N   0.944443023871752   0.388886047743507   0.125093377325346   1.0000000
N2   N   0.111114687049906   0.555550892121327   0.624895412970491   1.0000000
N2   N   0.277790567072838   0.055581134145675   0.624872037732797   1.0000000
N2   N   0.777752199187659   0.555542766260499   0.624872037732797   1.0000000
N2   N   0.611113007809543   0.055552213248413   0.624937609907574   1.0000000
N2   N   0.944439205438865   0.055552213248413   0.624937609907574   1.0000000
N2   N   0.054908072312394   0.110654368895173   0.375000000000000   1.0000000
N2   N   0.555891750894111   0.611783501788211   0.375000000000000   1.0000000
N2   N   0.387883462749651   0.106888362698741   0.375000000000000   1.0000000
N2   N   0.890471028279794   0.611902180806569   0.375000000000000   1.0000000
N2   N   0.722335715831443   0.110997617501894   0.375000000000000   1.0000000
N2   N   0.055555992555863   0.777777340777472   0.875000000000000   1.0000000
N2   N   0.388887473030830   0.777780218345180   0.875000000000000   1.0000000
N2   N   0.222218025948559   0.277775679640948   0.875000000000000   1.0000000
N2   N   0.722225576232292   0.777778459011821   0.875000000000000   1.0000000
N2   N   0.555557653692389   0.277775679640948   0.875000000000000   1.0000000
N2   N   0.888890533647036   0.277781067294081   0.875000000000000   1.0000000
N2   N   0.221924012667429   0.777628673000384   0.375000000000000   1.0000000
N2   N   0.054908072312394   0.277587036750557   0.375000000000000   1.0000000
N2   N   0.381604789770219   0.263209579540444   0.375000000000000   1.0000000
N2   N   0.555746296582777   0.778425261020937   0.375000000000000   1.0000000
N2   N   0.890028713501239   0.778673859850621   0.375000000000000   1.0000000
N2   N   0.722678964438161   0.277587036750557   0.375000000000000   1.0000000
N2   N   0.055553114988159   0.944440588018994   0.875000000000000   1.0000000
N2   N   0.388887473030830   0.944440588018994   0.875000000000000   1.0000000
N2   N   0.222216431377916   0.444449376724742   0.875000000000000   1.0000000
N2   N   0.555582891492811   0.444458112413070   0.875000000000000   1.0000000
N2   N   0.722221554796734   0.944443109593464   0.875000000000000   1.0000000
N2   N   0.888892745314335   0.444445860302499   0.875000000000000   1.0000000
N2   N   0.054659473482718   0.444688186983952   0.375000000000000   1.0000000
N2   N   0.221431152526767   0.942862305053534   0.375000000000000   1.0000000
N2   N   0.555730578866599   0.944531956099963   0.375000000000000   1.0000000
N2   N   0.381604789770219   0.451728543563110   0.375000000000000   1.0000000
N2   N   0.888801377233366   0.944531956099963   0.375000000000000   1.0000000
N2   N   0.726444970634590   0.445449870583678   0.375000000000000   1.0000000
N2   N   0.222218301030053   0.611115032303282   0.875000000000000   1.0000000
N2   N   0.055554874321513   0.111107757101042   0.875000000000000   1.0000000
N2   N   0.555557653692389   0.611115307384776   0.875000000000000   1.0000000
N2   N   0.388883956608586   0.111100387986509   0.875000000000000   1.0000000
N2   N   0.888896731273225   0.611115032303282   0.875000000000000   1.0000000
N2   N   0.055704660332954   0.611409320665910   0.375000000000000   1.0000000
N2   N   0.722221554796734   0.111111778536604   0.875000000000000   1.0000000
N2   N   0.219004899949083   0.106888362698741   0.375000000000000   1.0000000
N2   N   0.387883462749651   0.614328433384253   0.375000000000000   1.0000000
N2   N   0.726444970634590   0.614328433384253   0.375000000000000   1.0000000
N2   N   0.555746296582777   0.110654368895173   0.375000000000000   1.0000000
N2   N   0.388883956608586   0.611116901955422   0.875000000000000   1.0000000
N2   N   0.888661901670445   0.110997617501894   0.375000000000000   1.0000000
N2   N   0.222221348221610   0.777777340777472   0.875000000000000   1.0000000
N2   N   0.055554874321513   0.277780450553806   0.875000000000000   1.0000000
N2   N   0.388875220920259   0.277750441840522   0.875000000000000   1.0000000
N2   N   0.555552882779526   0.777778459011821   0.875000000000000   1.0000000
N2   N   0.888892745314335   0.777780218345180   0.875000000000000   1.0000000
N2   N   0.722225576232292   0.277780450553806   0.875000000000000   1.0000000
N2   N   0.055704660332954   0.777628673000384   0.375000000000000   1.0000000
N2   N   0.388645146349377   0.778673859850621   0.375000000000000   1.0000000
N2   N   0.221549831545124   0.277441582439230   0.375000000000000   1.0000000
N2   N   0.722678964438161   0.778425261020937   0.375000000000000   1.0000000
N2   N   0.555891750894111   0.277441582439230   0.375000000000000   1.0000000
N2   N   0.888801377233366   0.277602754466739   0.375000000000000   1.0000000
N2   N   0.055553114988159   0.444445860302499   0.875000000000000   1.0000000
N2   N   0.222218301030053   0.944436602060104   0.875000000000000   1.0000000
N2   N   0.555552266039259   0.944442799686292   0.875000000000000   1.0000000
N2   N   0.388875220920259   0.444458112413070   0.875000000000000   1.0000000
N2   N   0.888890533647036   0.944442799686292   0.875000000000000   1.0000000
N2   N   0.054659473482718   0.943304619832090   0.375000000000000   1.0000000
N2   N   0.722232945346830   0.444449376724742   0.875000000000000   1.0000000
N2   N   0.388645146349377   0.943304619832090   0.375000000000000   1.0000000
N2   N   0.219004899949083   0.445449870583678   0.375000000000000   1.0000000
N2   N   0.221431152526767   0.611902180806569   0.375000000000000   1.0000000
N2   N   0.570123753792891   0.451728543563110   0.375000000000000   1.0000000
N2   N   0.722335715831443   0.944671431662883   0.375000000000000   1.0000000
N2   N   0.890028713501239   0.444688186983952   0.375000000000000   1.0000000
N2   N   0.055555992555863   0.611111985111726   0.875000000000000   1.0000000
N2   N   0.222216431377916   0.111100387986509   0.875000000000000   1.0000000
N2   N   0.722232945346830   0.611116901955422   0.875000000000000   1.0000000
N2   N   0.555552882779526   0.111107757101042   0.875000000000000   1.0000000
N2   N   0.888890223739865   0.111111778536604   0.875000000000000   1.0000000
B2   B   0.108917865503150   0.053471826417468   0.375000000000000   1.0000000
B2   B   0.616946887316589   0.560642838755596   0.375000000000000   1.0000000
B2   B   0.444553960914320   0.053471826417468   0.375000000000000   1.0000000
B2   B   0.945150087675399   0.555765108338433   0.375000000000000   1.0000000
B2   B   0.777777777777779   0.055555555555557   0.375000000000000   1.0000000
B2   B   0.111111111111114   0.722222222222221   0.875000000000000   1.0000000
B2   B   0.444441105885278   0.722214635930046   0.875000000000000   1.0000000
B2   B   0.277796335126513   0.222232278956593   0.875000000000000   1.0000000
B2   B   0.777773530044765   0.722214635930046   0.875000000000000   1.0000000
B2   B   0.611103302211944   0.222230031121394   0.875000000000000   1.0000000
B2   B   0.944450487003047   0.222225980522856   0.875000000000000   1.0000000
B2   B   0.277568224994902   0.722718312670300   0.375000000000000   1.0000000
B2   B   0.110315625987260   0.221824479660294   0.375000000000000   1.0000000
B2   B   0.443695951439006   0.216386446016747   0.375000000000000   1.0000000
B2   B   0.611508853673043   0.723017707346074   0.375000000000000   1.0000000
B2   B   0.945150087675399   0.722718312670300   0.375000000000000   1.0000000
B2   B   0.777867696494983   0.221917860616693   0.375000000000000   1.0000000
B2   B   0.111112303552279   0.888890584278190   0.875000000000000   1.0000000
B2   B   0.444443305398729   0.888888319366026   0.875000000000000   1.0000000
B2   B   0.277796335126513   0.388897389503248   0.875000000000000   1.0000000
B2   B   0.611101054376743   0.388897389503248   0.875000000000000   1.0000000
B2   B   0.777775493519812   0.888882846330281   0.875000000000000   1.0000000
B2   B   0.944445013967303   0.388890027934600   0.875000000000000   1.0000000
B2   B   0.108917865503150   0.388779372419009   0.375000000000000   1.0000000
B2   B   0.277568224994902   0.888183245657930   0.375000000000000   1.0000000
B2   B   0.611415472716635   0.889283169211622   0.375000000000000   1.0000000
B2   B   0.944321186097349   0.889012147235979   0.375000000000000   1.0000000
B2   B   0.779861506915866   0.388779372419009   0.375000000000000   1.0000000
B2   B   0.277779731382620   0.555553601950716   0.875000000000000   1.0000000
B2   B   0.111118697403289   0.055559803288567   0.875000000000000   1.0000000
B2   B   0.611101054376743   0.555536998206823   0.875000000000000   1.0000000
B2   B   0.444441105885278   0.055559803288567   0.875000000000000   1.0000000
B2   B   0.944442749055139   0.555555052607422   0.875000000000000   1.0000000
B2   B   0.110615020663037   0.555765108338433   0.375000000000000   1.0000000
B2   B   0.777777777777779   0.055555555555557   0.875000000000000   1.0000000
B2   B   0.276537314187029   0.053074628374065   0.375000000000000   1.0000000
B2   B   0.443695951439006   0.560642838755596   0.375000000000000   1.0000000
B2   B   0.780258704959278   0.556796019146299   0.375000000000000   1.0000000
B2   B   0.611415472716635   0.055465636838351   0.375000000000000   1.0000000
B2   B   0.444435943830080   0.555536998206823   0.875000000000000   1.0000000
B2   B   0.944050164121707   0.055465636838351   0.375000000000000   1.0000000
B2   B   0.277778280725913   0.722221029781059   0.875000000000000   1.0000000
B2   B   0.111126728909459   0.222230031121394   0.875000000000000   1.0000000
B2   B   0.444435943830080   0.222232278956593   0.875000000000000   1.0000000
B2   B   0.611103302211944   0.722206604423872   0.875000000000000   1.0000000
B2   B   0.944442749055139   0.722221029781059   0.875000000000000   1.0000000
B2   B   0.777775493519812   0.222225980522856   0.875000000000000   1.0000000
B2   B   0.111111111111114   0.722222222222221   0.375000000000000   1.0000000
B2   B   0.444553960914320   0.724415467830181   0.375000000000000   1.0000000
B2   B   0.272690494577743   0.216386446016747   0.375000000000000   1.0000000
B2   B   0.779861506915866   0.724415467830181   0.375000000000000   1.0000000
B2   B   0.611508853673043   0.221824479660294   0.375000000000000   1.0000000
B2   B   0.944050164121707   0.221917860616693   0.375000000000000   1.0000000
B2   B   0.111118697403289   0.388892227448051   0.875000000000000   1.0000000
B2   B   0.277778280725913   0.888890584278190   0.875000000000000   1.0000000
B2   B   0.611107352810477   0.888882846330281   0.875000000000000   1.0000000
B2   B   0.444444444444443   0.388888888888886   0.875000000000000   1.0000000
B2   B   0.944445013967303   0.888888319366026   0.875000000000000   1.0000000
B2   B   0.110615020663037   0.888183245657930   0.375000000000000   1.0000000
B2   B   0.777773530044765   0.388892227448051   0.875000000000000   1.0000000
B2   B   0.444690961138627   0.889012147235979   0.375000000000000   1.0000000
B2   B   0.272690494577743   0.389637381894323   0.375000000000000   1.0000000
B2   B   0.276537314187029   0.556796019146299   0.375000000000000   1.0000000
B2   B   0.616946887316589   0.389637381894323   0.375000000000000   1.0000000
B2   B   0.777867696494983   0.889283169211622   0.375000000000000   1.0000000
B2   B   0.944321186097349   0.388642372194701   0.375000000000000   1.0000000
B2   B   0.111112303552279   0.555555052607422   0.875000000000000   1.0000000
B2   B   0.277779731382620   0.055559462765240   0.875000000000000   1.0000000
B2   B   0.777773870568095   0.555553601950716   0.875000000000000   1.0000000
B2   B   0.611107352810477   0.055557839813525   0.875000000000000   1.0000000
B2   B   0.944450487003047   0.055557839813525   0.875000000000000   1.0000000
B2   B   0.055558704787066   0.111125226353671   0.125121893243187   1.0000000
B2   B   0.555528529169572   0.611057058339145   0.124307727407874   1.0000000
B2   B   0.388920602330627   0.111197921951761   0.124902089520134   1.0000000
B2   B   0.888854174426086   0.611093753879714   0.125098814061011   1.0000000
B2   B   0.722223390120379   0.111109943212954   0.124996752841217   1.0000000
B2   B   0.055550832649817   0.777782500683519   0.624992964566805   1.0000000
B2   B   0.388904270607868   0.777770006020481   0.624873378710609   1.0000000
B2   B   0.222276274994188   0.277804804163763   0.625692272592126   1.0000000
B2   B   0.722208106979665   0.777774628546269   0.624878106756813   1.0000000
B2   B   0.555528529169572   0.277804804163763   0.625692272592126   1.0000000
B2   B   0.888883971405737   0.277767942811485   0.624965922984334   1.0000000
B2   B   0.222231668033702   0.777782500683519   0.125007035433194   1.0000000
B2   B   0.055558704787066   0.277766811766731   0.125121893243187   1.0000000
B2   B   0.388998111494015   0.277996222988034   0.121972736758672   1.0000000
B2   B   0.555566521566601   0.777774628546269   0.125121893243187   1.0000000
B2   B   0.888865735412610   0.777770006020481   0.125126621289391   1.0000000
B2   B   0.722208106979665   0.277766811766731   0.125121893243187   1.0000000
B2   B   0.055563327312853   0.944467597920719   0.624873378710609   1.0000000
B2   B   0.388904270607868   0.944467597920719   0.624873378710609   1.0000000
B2   B   0.222277319621126   0.444412731002702   0.625097910479866   1.0000000
B2   B   0.555337110345298   0.444335221839313   0.628027263241334   1.0000000
B2   B   0.722223390120379   0.944446780240761   0.625003247158782   1.0000000
B2   B   0.888865735412610   0.444429062725461   0.624873378710609   1.0000000
B2   B   0.055563327312853   0.444429062725461   0.125126621289391   1.0000000
B2   B   0.222239579453620   0.944479158907243   0.125098814061011   1.0000000
B2   B   0.555565390521852   0.944449361927592   0.125034077015664   1.0000000
B2   B   0.388998111494015   0.444335221839313   0.121972736758672   1.0000000
B2   B   0.888883971405737   0.944449361927592   0.125034077015664   1.0000000
B2   B   0.722135411381578   0.444412731002702   0.124902089520134   1.0000000
B2   B   0.222239579453620   0.611093753879714   0.624901185938991   1.0000000
B2   B   0.055558704787066   0.111125226353671   0.624878106756813   1.0000000
B2   B   0.555528529169572   0.611057058339145   0.625692272592126   1.0000000
B2   B   0.388920602330627   0.111197921951761   0.625097910479866   1.0000000
B2   B   0.888854174426086   0.611093753879714   0.624901185938991   1.0000000
B2   B   0.055550832649817   0.611101665299632   0.125007035433194   1.0000000
B2   B   0.722223390120379   0.111109943212954   0.625003247158782   1.0000000
B2   B   0.222277319621126   0.111197921951761   0.124902089520134   1.0000000
B2   B   0.388920602330627   0.611056013712207   0.124902089520134   1.0000000
B2   B   0.722135411381578   0.611056013712207   0.124902089520134   1.0000000
B2   B   0.555566521566601   0.111125226353671   0.125121893243187   1.0000000
B2   B   0.388920602330627   0.611056013712207   0.625097910479866   1.0000000
B2   B   0.888886553092568   0.111109943212954   0.124996752841217   1.0000000
B2   B   0.222231668033702   0.777782500683519   0.624992964566805   1.0000000
B2   B   0.055558704787066   0.277766811766731   0.624878106756813   1.0000000
B2   B   0.388998111494015   0.277996222988034   0.628027263241334   1.0000000
B2   B   0.555566521566601   0.777774628546269   0.624878106756813   1.0000000
B2   B   0.888865735412610   0.777770006020481   0.624873378710609   1.0000000
B2   B   0.722208106979665   0.277766811766731   0.624878106756813   1.0000000
B2   B   0.055550832649817   0.777782500683519   0.125007035433194   1.0000000
B2   B   0.388904270607868   0.777770006020481   0.125126621289391   1.0000000
B2   B   0.222276274994188   0.277804804163763   0.124307727407874   1.0000000
B2   B   0.722208106979665   0.777774628546269   0.125121893243187   1.0000000
B2   B   0.555528529169572   0.277804804163763   0.124307727407874   1.0000000
B2   B   0.888883971405737   0.277767942811485   0.125034077015664   1.0000000
B2   B   0.055563327312853   0.444429062725461   0.624873378710609   1.0000000
B2   B   0.222239579453620   0.944479158907243   0.624901185938991   1.0000000
B2   B   0.555565390521852   0.944449361927592   0.624965922984334   1.0000000
B2   B   0.388998111494015   0.444335221839313   0.628027263241334   1.0000000
B2   B   0.888883971405737   0.944449361927592   0.624965922984334   1.0000000
B2   B   0.055563327312853   0.944467597920719   0.125126621289391   1.0000000
B2   B   0.722135411381578   0.444412731002702   0.625097910479866   1.0000000
B2   B   0.388904270607868   0.944467597920719   0.125126621289391   1.0000000
B2   B   0.222277319621126   0.444412731002702   0.124902089520134   1.0000000
B2   B   0.222239579453620   0.611093753879714   0.125098814061011   1.0000000
B2   B   0.555337110345298   0.444335221839313   0.121972736758672   1.0000000
B2   B   0.722223390120379   0.944446780240761   0.124996752841217   1.0000000
B2   B   0.888865735412610   0.444429062725461   0.125126621289391   1.0000000
B2   B   0.055550832649817   0.611101665299632   0.624992964566805   1.0000000
B2   B   0.222277319621126   0.111197921951761   0.625097910479866   1.0000000
B2   B   0.722135411381578   0.611056013712207   0.625097910479866   1.0000000
B2   B   0.555566521566601   0.111125226353671   0.624878106756813   1.0000000
B2   B   0.888886553092568   0.111109943212954   0.625003247158782   1.0000000


