data_1
_audit_creation_method   'vasp2cif'
_cell_length_a    17.52789999999977
_cell_length_b    17.52789999999977
_cell_length_c    15.0
_cell_angle_alpha    90.0
_cell_angle_beta    90.0
_cell_angle_gamma    119.99999999999916

_symmetry_space_group_name_H-M    'P 1'
loop_
_atom_site_label
_atom_site_type_symbol
_atom_site_fract_x
_atom_site_fract_y
_atom_site_fract_z
_atom_site_occupancy
Ga2   Ga   0.494041302356609   0.505960099560388   0.111153779034316   1.0000000
B2   B   0.906148938153602   0.953126752939669   0.111011944059108   1.0000000
B2   B   0.904681020829588   0.095321000366409   0.111028028822744   1.0000000
B2   B   0.904161904617263   0.238067009969898   0.111036121683167   1.0000000
B2   B   0.904337976796378   0.380891697423070   0.110982805726092   1.0000000
B2   B   0.905378209999583   0.523962277186189   0.111011776697539   1.0000000
B2   B   0.906592112113636   0.667050621646052   0.111076048983028   1.0000000
B2   B   0.907205478496342   0.810664145310045   0.111033588111113   1.0000000
B2   B   0.048291108137715   0.951710913058288   0.111025013562341   1.0000000
B2   B   0.046875268256335   0.093853083042395   0.111011944059108   1.0000000
B2   B   0.046205899280168   0.236766687116978   0.110986710108044   1.0000000
B2   B   0.046513274524625   0.380092762781482   0.111014878407779   1.0000000
B2   B   0.047749692507243   0.523379880616759   0.111008042324313   1.0000000
B2   B   0.048730559184022   0.666236460213666   0.111065570252031   1.0000000
B2   B   0.048883701873759   0.809152918271218   0.111064608276308   1.0000000
B2   B   0.190849102924785   0.951118319322244   0.111064608276308   1.0000000
B2   B   0.189337875885959   0.092796542699654   0.111033588111113   1.0000000
B2   B   0.187180846654694   0.234298327741782   0.110983412871960   1.0000000
B2   B   0.188183263823471   0.378879839631431   0.111036380842091   1.0000000
B2   B   0.190078621848128   0.522226929101243   0.111067120624093   1.0000000
B2   B   0.191237802275395   0.665609976981793   0.111046512920899   1.0000000
B2   B   0.191317850383184   0.808684170812820   0.111021683631197   1.0000000
B2   B   0.333765560983333   0.951271462011981   0.111065570252031   1.0000000
B2   B   0.332951399550939   0.093409909082360   0.111076048983028   1.0000000
B2   B   0.330424871548681   0.233718954903923   0.110985159081192   1.0000000
B2   B   0.326680290163655   0.374946418424229   0.111027905772117   1.0000000
B2   B   0.332028705581866   0.519867632591112   0.111103616245245   1.0000000
B2   B   0.334444094193743   0.665557927003255   0.111096292809794   1.0000000
B2   B   0.334392044215206   0.808764218920608   0.111046512920899   1.0000000
B2   B   0.476622140580240   0.952252328688761   0.111008042324313   1.0000000
B2   B   0.476039744010808   0.094623811196414   0.111011776697539   1.0000000
B2   B   0.475297386070774   0.236544982387583   0.110998137250291   1.0000000
B2   B   0.470105647986964   0.372663044403413   0.111052135766769   1.0000000
B2   B   0.480134388605886   0.667973315615132   0.111103616245245   1.0000000
B2   B   0.477775092095755   0.809923399347875   0.111067120624093   1.0000000
B2   B   0.619909258414522   0.953488746671378   0.111014878407779   1.0000000
B2   B   0.619110323772934   0.095664044399619   0.110982805726092   1.0000000
B2   B   0.618729333542934   0.238244900185920   0.110982340278412   1.0000000
B2   B   0.618812635584008   0.381189385611995   0.110986166891771   1.0000000
B2   B   0.627338976792590   0.529896373210034   0.111052135766769   1.0000000
B2   B   0.625055602771774   0.673321731033343   0.111027905772117   1.0000000
B2   B   0.621122181564573   0.811818757372533   0.111036380842091   1.0000000
B2   B   0.763235334079025   0.953796121915835   0.110986710108044   1.0000000
B2   B   0.761935011226106   0.095840116578733   0.111036121683167   1.0000000
B2   B   0.761531941607931   0.238470079588072   0.111022220513235   1.0000000
B2   B   0.761757121010084   0.381272687653069   0.110982340278412   1.0000000
B2   B   0.763457038808421   0.524704635126224   0.110998137250291   1.0000000
B2   B   0.766283066292081   0.669577149648324   0.110985159081192   1.0000000
B2   B   0.765703693454220   0.812821174541310   0.110983412871960   1.0000000
N2   N   0.953564324832459   0.905196983079259   0.111002336579980   1.0000000
N2   N   0.952343853696989   0.047657548221017   0.111010787875947   1.0000000
N2   N   0.951591478610792   0.190255989850957   0.110999599076363   1.0000000
N2   N   0.951658377383464   0.333149664467490   0.110984829699612   1.0000000
N2   N   0.952600672064102   0.476102763626321   0.110967974722325   1.0000000
N2   N   0.953522798078961   0.619000286114975   0.111064836470821   1.0000000
N2   N   0.953843038305022   0.762089936530200   0.111059260051061   1.0000000
N2   N   0.095928809101055   0.904072592816943   0.111018338271498   1.0000000
N2   N   0.094804418838740   0.046437077085546   0.111002336579980   1.0000000
N2   N   0.093138544685145   0.188416923456668   0.110966069872694   1.0000000
N2   N   0.093548788936501   0.332049281170943   0.110994393817716   1.0000000
N2   N   0.095113825641641   0.475465611156080   0.111009365026204   1.0000000
N2   N   0.096197252224862   0.618452807216708   0.111016706741359   1.0000000
N2   N   0.096356214968077   0.761279484438300   0.111033984410471   1.0000000
N2   N   0.238721917479705   0.903645186949921   0.111033984410471   1.0000000
N2   N   0.237911465387806   0.046158363612984   0.111059260051061   1.0000000
N2   N   0.235869380582132   0.187669491629465   0.110964916617860   1.0000000
N2   N   0.233255852815028   0.328845490821222   0.110988018325577   1.0000000
N2   N   0.236867207776028   0.474261205145137   0.111062591100979   1.0000000
N2   N   0.239189791097006   0.617841708034166   0.111064300432506   1.0000000
N2   N   0.239212950400711   0.760788451517295   0.111016330416273   1.0000000
N2   N   0.381548594701289   0.903804149693137   0.111016706741359   1.0000000
N2   N   0.381001115803031   0.046478603839045   0.111064836470821   1.0000000
N2   N   0.380167189282486   0.188675745629141   0.111000071432126   1.0000000
N2   N   0.376486385352175   0.328669501746487   0.110985485120701   1.0000000
N2   N   0.373263025204215   0.467916732005477   0.111053603415138   1.0000000
N2   N   0.382746868805416   0.617254533112583   0.111088001374391   1.0000000
N2   N   0.382159693883833   0.760811610821001   0.111064300432506   1.0000000
N2   N   0.524535790760917   0.904887576276356   0.111009365026204   1.0000000
N2   N   0.523898638290676   0.047400729853897   0.110967974722325   1.0000000
N2   N   0.523455483446261   0.190107834182235   0.110976664776424   1.0000000
N2   N   0.523032994282129   0.333017864087180   0.110985314069693   1.0000000
N2   N   0.532084669911519   0.626738376713783   0.111053603415138   1.0000000
N2   N   0.525740196771859   0.763134194141978   0.111062591100979   1.0000000
N2   N   0.667952120746053   0.906452612981496   0.110994393817716   1.0000000
N2   N   0.666851737449507   0.048343024534541   0.110984829699612   1.0000000
N2   N   0.666344086899163   0.190890064947092   0.110981120911170   1.0000000
N2   N   0.666167528765770   0.333833873151226   0.110955231582157   1.0000000
N2   N   0.666983537829817   0.476968407634867   0.110985314069693   1.0000000
N2   N   0.671331900170509   0.623515016565823   0.110985485120701   1.0000000
N2   N   0.671155911095775   0.766745549102979   0.110988018325577   1.0000000
N2   N   0.811584478461331   0.906862857232854   0.110966069872694   1.0000000
N2   N   0.809745412067042   0.048409923307213   0.110999599076363   1.0000000
N2   N   0.809127164308440   0.190874237609559   0.111041453631585   1.0000000
N2   N   0.809111336970899   0.333657315017835   0.110981120911170   1.0000000
N2   N   0.809893567735764   0.476545918470736   0.110976664776424   1.0000000
N2   N   0.811325656288857   0.619834212635511   0.111000071432126   1.0000000
N2   N   0.812331910288533   0.764132021335875   0.110964916617860   1.0000000


