data_1
_audit_creation_method   'vasp2cif'
_cell_length_a    14.93631414619966
_cell_length_b    14.936314146199727
_cell_length_c    13.341276283792837
_cell_angle_alpha    90.0
_cell_angle_beta    90.0
_cell_angle_gamma    119.99999999999984

_symmetry_space_group_name_H-M    'P 1'
loop_
_atom_site_label
_atom_site_type_symbol
_atom_site_fract_x
_atom_site_fract_y
_atom_site_fract_z
_atom_site_occupancy
O2   O   0.566460697225957   0.449897015279643   0.375000000000000   1.0000000
N2   N   0.111111581865507   0.055557354735530   0.125267785642912   1.0000000
N2   N   0.611124276334460   0.555552263593267   0.125902890966873   1.0000000
N2   N   0.444432139941500   0.055562157942690   0.125221726448795   1.0000000
N2   N   0.944463771970364   0.555565918519326   0.125087751638812   1.0000000
N2   N   0.777770174572277   0.055551753952806   0.125133973673517   1.0000000
N2   N   0.111116192954513   0.722224763143921   0.624858089167423   1.0000000
N2   N   0.444432139941500   0.722203315332147   0.624778273551206   1.0000000
N2   N   0.277789399870409   0.222241177054086   0.623881731976780   1.0000000
N2   N   0.777794872192408   0.722226849395499   0.624858666395280   1.0000000
N2   N   0.611111800818061   0.222238971645639   0.624705270483109   1.0000000
N2   N   0.944446115309155   0.222225591611199   0.624894886019136   1.0000000
N2   N   0.277768577610790   0.722210645630585   0.125177299530879   1.0000000
N2   N   0.111111426012273   0.222222379672801   0.125376663997654   1.0000000
N2   N   0.444445973713983   0.222245406580315   0.125931735938830   1.0000000
N2   N   0.611111800818061   0.722206162505750   0.125294729516892   1.0000000
N2   N   0.944463771970364   0.722231186784373   0.125087751638812   1.0000000
N2   N   0.777779377724646   0.222228078609480   0.125094827798123   1.0000000
N2   N   0.111116152787985   0.888895055207371   0.624818470995293   1.0000000
N2   N   0.444427046302308   0.888880189817817   0.624907263337439   1.0000000
N2   N   0.277789399870409   0.388881556149651   0.623881731976780   1.0000000
N2   N   0.611124276334460   0.388905346074521   0.624097109033127   1.0000000
N2   N   0.777779377724646   0.888884632448494   0.624905172201877   1.0000000
N2   N   0.944453272946675   0.388896086855541   0.624915055164364   1.0000000
N2   N   0.111111581865507   0.388887560463305   0.125267785642912   1.0000000
N2   N   0.277768577610790   0.888891265313533   0.125177299530879   1.0000000
N2   N   0.611091847726683   0.888870478661144   0.125121563817623   1.0000000
N2   N   0.444463560894344   0.388898447113836   0.125495471781698   1.0000000
N2   N   0.944453272946675   0.888890519424462   0.125084944835638   1.0000000
N2   N   0.777794872192408   0.388901356130237   0.125141333604721   1.0000000
N2   N   0.277779508767027   0.555537034964963   0.624497739239893   1.0000000
N2   N   0.111111581865507   0.055557354735530   0.624732214357088   1.0000000
N2   N   0.611124276334460   0.555552263593267   0.624097109033127   1.0000000
N2   N   0.444432139941500   0.055562157942690   0.624778273551206   1.0000000
N2   N   0.944463771970364   0.555565918519326   0.624912248361188   1.0000000
N2   N   0.111116152787985   0.555554430913943   0.125181529004708   1.0000000
N2   N   0.777770174572277   0.055551753952806   0.624866026326482   1.0000000
N2   N   0.277779508767027   0.055575807135397   0.125502260760105   1.0000000
N2   N   0.444445973713983   0.555533900467005   0.125931735938830   1.0000000
N2   N   0.777803254698697   0.555568294016017   0.125208367373137   1.0000000
N2   N   0.611091847726683   0.055554702398869   0.125121563817623   1.0000000
N2   N   0.444445973713983   0.555533900467005   0.624068264061168   1.0000000
N2   N   0.944446115309155   0.055553857031291   0.125105113980864   1.0000000
N2   N   0.277768577610790   0.722210645630585   0.624822700469121   1.0000000
N2   N   0.111111426012273   0.222222379672801   0.624623336002345   1.0000000
N2   N   0.444445973713983   0.222245406580315   0.624068264061168   1.0000000
N2   N   0.611111800818061   0.722206162505750   0.624705270483109   1.0000000
N2   N   0.944463771970364   0.722231186784373   0.624912248361188   1.0000000
N2   N   0.777779377724646   0.222228078609480   0.624905172201877   1.0000000
N2   N   0.111116192954513   0.722224763143921   0.125141910832578   1.0000000
N2   N   0.444432139941500   0.722203315332147   0.125221726448795   1.0000000
N2   N   0.277789399870409   0.222241177054086   0.126118268023221   1.0000000
N2   N   0.777794872192408   0.722226849395499   0.125141333604721   1.0000000
N2   N   0.611111800818061   0.222238971645639   0.125294729516892   1.0000000
N2   N   0.944446115309155   0.222225591611199   0.125105113980864   1.0000000
N2   N   0.111111581865507   0.388887560463305   0.624732214357088   1.0000000
N2   N   0.277768577610790   0.888891265313533   0.624822700469121   1.0000000
N2   N   0.611091847726683   0.888870478661144   0.624878436182378   1.0000000
N2   N   0.444463560894344   0.388898447113836   0.624504528218300   1.0000000
N2   N   0.944453272946675   0.888890519424462   0.624915055164364   1.0000000
N2   N   0.111116152787985   0.888895055207371   0.125181529004708   1.0000000
N2   N   0.777794872192408   0.388901356130237   0.624858666395280   1.0000000
N2   N   0.444427046302308   0.888880189817817   0.125092736662561   1.0000000
N2   N   0.277789399870409   0.388881556149651   0.126118268023221   1.0000000
N2   N   0.277779508767027   0.555537034964963   0.125502260760105   1.0000000
N2   N   0.611124276334460   0.388905346074521   0.125902890966873   1.0000000
N2   N   0.777779377724646   0.888884632448494   0.125094827798123   1.0000000
N2   N   0.944453272946675   0.388896086855541   0.125084944835638   1.0000000
N2   N   0.111116152787985   0.555554430913943   0.624818470995293   1.0000000
N2   N   0.277779508767027   0.055575807135397   0.624497739239893   1.0000000
N2   N   0.777803254698697   0.555568294016017   0.624791632626863   1.0000000
N2   N   0.611091847726683   0.055554702398869   0.624878436182378   1.0000000
N2   N   0.944446115309155   0.055553857031291   0.624894886019136   1.0000000
N2   N   0.053216252706004   0.109715140753322   0.375000000000000   1.0000000
N2   N   0.556253895464200   0.608284135818781   0.375000000000000   1.0000000
N2   N   0.389606632702037   0.113878357461755   0.375000000000000   1.0000000
N2   N   0.891228190658305   0.612280761995825   0.375000000000000   1.0000000
N2   N   0.721338874080086   0.110980735064256   0.375000000000000   1.0000000
N2   N   0.055554082197519   0.777780304966642   0.875000000000000   1.0000000
N2   N   0.388891316474902   0.777779654744543   0.875000000000000   1.0000000
N2   N   0.222220819687484   0.277777076510410   0.875000000000000   1.0000000
N2   N   0.722215827217310   0.777777099147214   0.875000000000000   1.0000000
N2   N   0.555548691854436   0.277774559531021   0.875000000000000   1.0000000
N2   N   0.888885966180730   0.277774232818599   0.875000000000000   1.0000000
N2   N   0.223453788325973   0.778393560829654   0.375000000000000   1.0000000
N2   N   0.053216252706004   0.276834445286018   0.375000000000000   1.0000000
N2   N   0.384296591391076   0.277534510128899   0.375000000000000   1.0000000
N2   N   0.555529564280533   0.776309771169930   0.375000000000000   1.0000000
N2   N   0.889902437639387   0.778209193989623   0.375000000000000   1.0000000
N2   N   0.722132145281367   0.278446786490522   0.375000000000000   1.0000000
N2   N   0.055553112099715   0.944447873625212   0.875000000000000   1.0000000
N2   N   0.388891316474902   0.944444995063695   0.875000000000000   1.0000000
N2   N   0.222222069032592   0.444439992560150   0.875000000000000   1.0000000
N2   N   0.555550422770732   0.444441878052030   0.875000000000000   1.0000000
N2   N   0.722217221158467   0.944443738494293   0.875000000000000   1.0000000
N2   N   0.888884412947643   0.444438929858180   0.875000000000000   1.0000000
N2   N   0.055200086964296   0.444314916396578   0.375000000000000   1.0000000
N2   N   0.223191480848360   0.945791525214912   0.375000000000000   1.0000000
N2   N   0.555387654697097   0.944360494015212   0.375000000000000   1.0000000
N2   N   0.384296591391076   0.440095414595513   0.375000000000000   1.0000000
N2   N   0.887835159854878   0.943593056122912   0.375000000000000   1.0000000
N2   N   0.725106799549247   0.446019537557663   0.375000000000000   1.0000000
N2   N   0.222223501678917   0.611107413959771   0.875000000000000   1.0000000
N2   N   0.055551888773184   0.111110948282778   0.875000000000000   1.0000000
N2   N   0.555548691854436   0.611107465656751   0.875000000000000   1.0000000
N2   N   0.388888913132204   0.111111913186814   0.875000000000000   1.0000000
N2   N   0.888882787257015   0.611108060295179   0.875000000000000   1.0000000
N2   N   0.057048869469605   0.611684001133896   0.375000000000000   1.0000000
N2   N   0.722217221158467   0.111106815997508   0.875000000000000   1.0000000
N2   N   0.220351272532642   0.110629574466893   0.375000000000000   1.0000000
N2   N   0.389606632702037   0.609061608573626   0.375000000000000   1.0000000
N2   N   0.725106799549247   0.612420595324920   0.375000000000000   1.0000000
N2   N   0.555529564280533   0.112553126443939   0.375000000000000   1.0000000
N2   N   0.388888913132204   0.611110333278732   0.875000000000000   1.0000000
N2   N   0.887249739997550   0.110291536665446   0.375000000000000   1.0000000
N2   N   0.222224343362841   0.777778838348091   0.875000000000000   1.0000000
N2   N   0.055551888773184   0.277774273823742   0.875000000000000   1.0000000
N2   N   0.388886398039629   0.277775858863743   0.875000000000000   1.0000000
N2   N   0.555552253884850   0.777778226270811   0.875000000000000   1.0000000
N2   N   0.888884412947643   0.777778816422797   0.875000000000000   1.0000000
N2   N   0.722215827217310   0.277772061403432   0.875000000000000   1.0000000
N2   N   0.057048869469605   0.778698201669042   0.375000000000000   1.0000000
N2   N   0.389505227083013   0.777374238392071   0.375000000000000   1.0000000
N2   N   0.217827372150564   0.275580352741950   0.375000000000000   1.0000000
N2   N   0.722132145281367   0.777018692124179   0.375000000000000   1.0000000
N2   N   0.556253895464200   0.281303092978757   0.375000000000000   1.0000000
N2   N   0.887835159854878   0.277575437065302   0.375000000000000   1.0000000
N2   N   0.055553112099715   0.444438571807830   0.875000000000000   1.0000000
N2   N   0.222223501678917   0.944449421052481   0.875000000000000   1.0000000
N2   N   0.555553376454330   0.944443354893829   0.875000000000000   1.0000000
N2   N   0.388886398039629   0.444443872509221   0.875000000000000   1.0000000
N2   N   0.888885966180730   0.944445066695466   0.875000000000000   1.0000000
N2   N   0.055200086964296   0.944218503901047   0.375000000000000   1.0000000
N2   N   0.722210524617953   0.444437655189006   0.875000000000000   1.0000000
N2   N   0.389505227083013   0.945464322024279   0.375000000000000   1.0000000
N2   N   0.220351272532642   0.443055031399085   0.375000000000000   1.0000000
N2   N   0.223191480848360   0.610733288966785   0.375000000000000   1.0000000
N2   N   0.721338874080086   0.943691472349165   0.375000000000000   1.0000000
N2   N   0.889902437639387   0.445026576983100   0.375000000000000   1.0000000
N2   N   0.055554082197519   0.611107110564214   0.875000000000000   1.0000000
N2   N   0.222222069032592   0.111115409805778   0.875000000000000   1.0000000
N2   N   0.722210524617953   0.611106202762285   0.875000000000000   1.0000000
N2   N   0.555552253884850   0.111107360947372   0.875000000000000   1.0000000
N2   N   0.888885662596459   0.111109497964901   0.875000000000000   1.0000000
B2   B   0.108756801695388   0.054338508825943   0.375000000000000   1.0000000
B2   B   0.615178160923195   0.555078808038188   0.375000000000000   1.0000000
B2   B   0.444865235032472   0.056717619536625   0.375000000000000   1.0000000
B2   B   0.946050098973021   0.556199364252163   0.375000000000000   1.0000000
B2   B   0.776320674580108   0.054827003956722   0.375000000000000   1.0000000
B2   B   0.111103593011728   0.722218463172528   0.875000000000000   1.0000000
B2   B   0.444457255487457   0.722251864471837   0.875000000000000   1.0000000
B2   B   0.277761068185430   0.222203922091709   0.875000000000000   1.0000000
B2   B   0.777783054894337   0.722234229927042   0.875000000000000   1.0000000
B2   B   0.611125992390355   0.222210108375110   0.875000000000000   1.0000000
B2   B   0.944413018613878   0.222207089186404   0.875000000000000   1.0000000
B2   B   0.278590830058315   0.722348918682174   0.375000000000000   1.0000000
B2   B   0.106371336115664   0.219852334724496   0.375000000000000   1.0000000
B2   B   0.446624162992131   0.225031370610560   0.375000000000000   1.0000000
B2   B   0.611455359527860   0.720962234482990   0.375000000000000   1.0000000
B2   B   0.946050098973021   0.723184068054195   0.375000000000000   1.0000000
B2   B   0.776895574284343   0.222080865369528   0.375000000000000   1.0000000
B2   B   0.111096383280949   0.888874461727362   0.875000000000000   1.0000000
B2   B   0.444456002289427   0.888894667811376   0.875000000000000   1.0000000
B2   B   0.277761068185430   0.388890479427050   0.875000000000000   1.0000000
B2   B   0.611129486969846   0.388890850668554   0.875000000000000   1.0000000
B2   B   0.777772323897930   0.888894732546769   0.875000000000000   1.0000000
B2   B   0.944426496028497   0.388879769877227   0.875000000000000   1.0000000
B2   B   0.108756801695388   0.387751626202774   0.375000000000000   1.0000000
B2   B   0.278590830058315   0.889575244709473   0.375000000000000   1.0000000
B2   B   0.610618830803163   0.888200450419976   0.375000000000000   1.0000000
B2   B   0.944159538748765   0.888777573887639   0.375000000000000   1.0000000
B2   B   0.779296328767489   0.389539871963713   0.375000000000000   1.0000000
B2   B   0.277772373977245   0.555573220589539   0.875000000000000   1.0000000
B2   B   0.111078456341178   0.055530386603283   0.875000000000000   1.0000000
B2   B   0.611129486969846   0.555571969634622   0.875000000000000   1.0000000
B2   B   0.444457255487457   0.055538724348953   0.875000000000000   1.0000000
B2   B   0.944438641881281   0.555552032764333   0.875000000000000   1.0000000
B2   B   0.111690723460791   0.555525483646171   0.375000000000000   1.0000000
B2   B   0.777766261000070   0.055549797166702   0.875000000000000   1.0000000
B2   B   0.277854059414885   0.056321506143661   0.375000000000000   1.0000000
B2   B   0.446624162992131   0.554926125714906   0.375000000000000   1.0000000
B2   B   0.780866228722640   0.557099781027989   0.375000000000000   1.0000000
B2   B   0.610618830803163   0.055751713716515   0.375000000000000   1.0000000
B2   B   0.444463197259992   0.555590681131800   0.875000000000000   1.0000000
B2   B   0.942053322965880   0.054195232920006   0.375000000000000   1.0000000
B2   B   0.277779452348988   0.722233248517851   0.875000000000000   1.0000000
B2   B   0.111070303971682   0.222201818652506   0.875000000000000   1.0000000
B2   B   0.444463197259992   0.222205849461527   0.875000000000000   1.0000000
B2   B   0.611125992390355   0.722249217348575   0.875000000000000   1.0000000
B2   B   0.944438641881281   0.722219942450282   0.875000000000000   1.0000000
B2   B   0.777772323897930   0.222210924684489   0.875000000000000   1.0000000
B2   B   0.112373238430597   0.722853285881962   0.375000000000000   1.0000000
B2   B   0.444865235032472   0.721480948829181   0.375000000000000   1.0000000
B2   B   0.271996418857578   0.219969203181983   0.375000000000000   1.0000000
B2   B   0.779296328767489   0.723089790137104   0.375000000000000   1.0000000
B2   B   0.611455359527860   0.223826458378196   0.375000000000000   1.0000000
B2   B   0.942053322965880   0.221191423379211   0.375000000000000   1.0000000
B2   B   0.111078456341178   0.388881403071223   0.875000000000000   1.0000000
B2   B   0.277779452348988   0.888879537164465   0.875000000000000   1.0000000
B2   B   0.611118409222795   0.888902896101300   0.875000000000000   1.0000000
B2   B   0.444470165533845   0.388901749433587   0.875000000000000   1.0000000
B2   B   0.944426496028497   0.888880059484599   0.875000000000000   1.0000000
B2   B   0.111690723460791   0.889498573147951   0.375000000000000   1.0000000
B2   B   0.777783054894337   0.388882158300625   0.875000000000000   1.0000000
B2   B   0.444624662753127   0.888978998043230   0.375000000000000   1.0000000
B2   B   0.271996418857578   0.385360549008923   0.375000000000000   1.0000000
B2   B   0.277854059414885   0.554865886604559   0.375000000000000   1.0000000
B2   B   0.615178160923195   0.393432686218337   0.375000000000000   1.0000000
B2   B   0.776895574284343   0.888148042248143   0.375000000000000   1.0000000
B2   B   0.944159538748765   0.388715298194455   0.375000000000000   1.0000000
B2   B   0.111096383280949   0.555555254886913   0.875000000000000   1.0000000
B2   B   0.277772373977245   0.055532486721041   0.875000000000000   1.0000000
B2   B   0.777787891505002   0.555560612419170   0.875000000000000   1.0000000
B2   B   0.611118409222795   0.055548846454824   0.875000000000000   1.0000000
B2   B   0.944413018613878   0.055539262760808   0.875000000000000   1.0000000
B2   B   0.055458761994817   0.111029839481881   0.124896039002531   1.0000000
B2   B   0.555664861917171   0.611184421097425   0.125295485368528   1.0000000
B2   B   0.388895748778522   0.111043348828018   0.125115223072951   1.0000000
B2   B   0.888953433063441   0.611143383198391   0.124894784583607   1.0000000
B2   B   0.722225449110728   0.111114787222849   0.124908733046708   1.0000000
B2   B   0.055540497729430   0.777744318031973   0.625079232988909   1.0000000
B2   B   0.388869211744672   0.777798407467415   0.625095488143074   1.0000000
B2   B   0.222116159305116   0.277724746319225   0.624727428045793   1.0000000
B2   B   0.722282806868814   0.777812850913268   0.625068631871727   1.0000000
B2   B   0.555664861917171   0.277813774153082   0.624704514631472   1.0000000
B2   B   0.888868784185006   0.277791344773806   0.625130064701882   1.0000000
B2   B   0.222182084242764   0.777757708788049   0.124936050935153   1.0000000
B2   B   0.055458761994817   0.277762255846272   0.124896039002531   1.0000000
B2   B   0.388979753377497   0.277867739999984   0.125293233296201   1.0000000
B2   B   0.555581297087137   0.777817865157611   0.124916862311408   1.0000000
B2   B   0.888924027561285   0.777776316022283   0.124877867586600   1.0000000
B2   B   0.722282806868814   0.277803289288884   0.124931368128273   1.0000000
B2   B   0.055500268997875   0.944362211358869   0.625093691599216   1.0000000
B2   B   0.388869211744672   0.944404137610591   0.625095488143074   1.0000000
B2   B   0.222129686371641   0.444475905486311   0.624859237198123   1.0000000
B2   B   0.555600799190269   0.444467066261798   0.624432922636784   1.0000000
B2   B   0.722225449110728   0.944443995221214   0.625091266953292   1.0000000
B2   B   0.888924027561285   0.444481044872337   0.625122132413400   1.0000000
B2   B   0.055500268997875   0.444471390972336   0.124906308400783   1.0000000
B2   B   0.222166570871447   0.944344795139444   0.124976304284209   1.0000000
B2   B   0.555546537280248   0.944439935306789   0.124881941095030   1.0000000
B2   B   0.388979753377497   0.444445346710850   0.125293233296201   1.0000000
B2   B   0.888868784185006   0.944410772744535   0.124869935298118   1.0000000
B2   B   0.722339899679935   0.444499986900892   0.125092059618079   1.0000000
B2   B   0.222166570871447   0.611155109065338   0.625023695715791   1.0000000
B2   B   0.055458761994817   0.111029839481881   0.625103960997468   1.0000000
B2   B   0.555664861917171   0.611184421097425   0.624704514631472   1.0000000
B2   B   0.388895748778522   0.111043348828018   0.624884776927048   1.0000000
B2   B   0.888953433063441   0.611143383198391   0.625105215416391   1.0000000
B2   B   0.055540497729430   0.611129513030792   0.124920767011091   1.0000000
B2   B   0.722225449110728   0.111114787222849   0.625091266953292   1.0000000
B2   B   0.222129686371641   0.110987114218665   0.125140762801876   1.0000000
B2   B   0.388895748778522   0.611185733283848   0.125115223072951   1.0000000
B2   B   0.722339899679935   0.611173246112380   0.125092059618079   1.0000000
B2   B   0.555581297087137   0.111096765262863   0.124916862311408   1.0000000
B2   B   0.388895748778522   0.611185733283848   0.624884776927048   1.0000000
B2   B   0.888844384578950   0.111088858956147   0.124886908170894   1.0000000
B2   B   0.222182084242764   0.777757708788049   0.625063949064846   1.0000000
B2   B   0.055458761994817   0.277762255846272   0.625103960997468   1.0000000
B2   B   0.388979753377497   0.277867739999984   0.624706766703800   1.0000000
B2   B   0.555581297087137   0.777817865157611   0.625083137688592   1.0000000
B2   B   0.888924027561285   0.777776316022283   0.625122132413400   1.0000000
B2   B   0.722282806868814   0.277803289288884   0.625068631871727   1.0000000
B2   B   0.055540497729430   0.777744318031973   0.124920767011091   1.0000000
B2   B   0.388869211744672   0.777798407467415   0.124904511856924   1.0000000
B2   B   0.222116159305116   0.277724746319225   0.125272571954206   1.0000000
B2   B   0.722282806868814   0.777812850913268   0.124931368128273   1.0000000
B2   B   0.555664861917171   0.277813774153082   0.125295485368528   1.0000000
B2   B   0.888868784185006   0.277791344773806   0.124869935298118   1.0000000
B2   B   0.055500268997875   0.444471390972336   0.625093691599216   1.0000000
B2   B   0.222166570871447   0.944344795139444   0.625023695715791   1.0000000
B2   B   0.555546537280248   0.944439935306789   0.625118058904970   1.0000000
B2   B   0.388979753377497   0.444445346710850   0.624706766703800   1.0000000
B2   B   0.888868784185006   0.944410772744535   0.625130064701882   1.0000000
B2   B   0.055500268997875   0.944362211358869   0.124906308400783   1.0000000
B2   B   0.722339899679935   0.444499986900892   0.624907940381922   1.0000000
B2   B   0.388869211744672   0.944404137610591   0.124904511856924   1.0000000
B2   B   0.222129686371641   0.444475905486311   0.125140762801876   1.0000000
B2   B   0.222166570871447   0.611155109065338   0.124976304284209   1.0000000
B2   B   0.555600799190269   0.444467066261798   0.125567077363216   1.0000000
B2   B   0.722225449110728   0.944443995221214   0.124908733046708   1.0000000
B2   B   0.888924027561285   0.444481044872337   0.124877867586600   1.0000000
B2   B   0.055540497729430   0.611129513030792   0.625079232988909   1.0000000
B2   B   0.222129686371641   0.110987114218665   0.624859237198123   1.0000000
B2   B   0.722339899679935   0.611173246112380   0.624907940381922   1.0000000
B2   B   0.555581297087137   0.111096765262863   0.625083137688592   1.0000000
B2   B   0.888844384578950   0.111088858956147   0.625113091829105   1.0000000


