data_1
_audit_creation_method   'vasp2cif'
_cell_length_a    14.93631414619966
_cell_length_b    14.936314146199727
_cell_length_c    13.341276283792837
_cell_angle_alpha    90.0
_cell_angle_beta    90.0
_cell_angle_gamma    119.99999999999984

_symmetry_space_group_name_H-M    'P 1'
loop_
_atom_site_label
_atom_site_type_symbol
_atom_site_fract_x
_atom_site_fract_y
_atom_site_fract_z
_atom_site_occupancy
Se2   Se   0.507216243496927   0.420274788415128   0.375000000000000   1.0000000
N2   N   0.111102321043408   0.055538811428433   0.125036194794911   1.0000000
N2   N   0.611075776376070   0.555553164852118   0.124052476957158   1.0000000
N2   N   0.444455814846247   0.055544530654333   0.125047750725876   1.0000000
N2   N   0.944414886350733   0.555545682854782   0.125063201704886   1.0000000
N2   N   0.777796056195979   0.055564694764659   0.124995165893655   1.0000000
N2   N   0.111096286714900   0.722214810024120   0.624987618898588   1.0000000
N2   N   0.444455814846247   0.722244617525253   0.624952249274122   1.0000000
N2   N   0.277746696332477   0.222198156033518   0.625327280052001   1.0000000
N2   N   0.777744729998928   0.722201176188420   0.624928814282324   1.0000000
N2   N   0.611110294381444   0.222200254308992   0.625040548889333   1.0000000
N2   N   0.944449843209666   0.222229534543138   0.624987621063883   1.0000000
N2   N   0.277779824735153   0.722229029045222   0.125013245904810   1.0000000
N2   N   0.111102756417760   0.222218044875546   0.125002537647920   1.0000000
N2   N   0.444449843945033   0.222201853815277   0.124549633292968   1.0000000
N2   N   0.611110294381444   0.722243373405777   0.124959451110664   1.0000000
N2   N   0.944414886350733   0.722202536829290   0.125063201704886   1.0000000
N2   N   0.777784877067656   0.222222502874635   0.125041963617308   1.0000000
N2   N   0.111098688486719   0.888873682391810   0.624992904705146   1.0000000
N2   N   0.444459647250750   0.888896490292046   0.624980940743891   1.0000000
N2   N   0.277746696332477   0.388881873632288   0.625327280052001   1.0000000
N2   N   0.611075776376070   0.388855944857288   0.625947523042838   1.0000000
N2   N   0.777784877067656   0.888895707526355   0.624958036382690   1.0000000
N2   N   0.944431901043863   0.388893841719495   0.624955977142218   1.0000000
N2   N   0.111102321043408   0.388896842948305   0.125036194794911   1.0000000
N2   N   0.277779824735153   0.888884129023258   0.125013245904810   1.0000000
N2   N   0.611129424497511   0.888909146200260   0.125022372830577   1.0000000
N2   N   0.444335234669715   0.388834284001520   0.122884074902957   1.0000000
N2   N   0.944431901043863   0.888871392657696   0.125044022857785   1.0000000
N2   N   0.777744729998928   0.388876887143836   0.125071185717674   1.0000000
N2   N   0.277776940667592   0.555568158214389   0.625003107701445   1.0000000
N2   N   0.111102321043408   0.055538811428433   0.624963805205089   1.0000000
N2   N   0.611075776376070   0.555553164852118   0.625947523042838   1.0000000
N2   N   0.444455814846247   0.055544530654333   0.624952249274122   1.0000000
N2   N   0.944414886350733   0.555545682854782   0.624936798295114   1.0000000
N2   N   0.111098688486719   0.555558339428239   0.125007095294859   1.0000000
N2   N   0.777796056195979   0.055564694764659   0.625004834106341   1.0000000
N2   N   0.277776940667592   0.055542115786542   0.124996892298558   1.0000000
N2   N   0.444449843945033   0.555581323463086   0.124549633292968   1.0000000
N2   N   0.777726547040522   0.555529940186932   0.124993187508671   1.0000000
N2   N   0.611129424497511   0.055553611630579   0.125022372830577   1.0000000
N2   N   0.444449843945033   0.555581323463086   0.625450366707032   1.0000000
N2   N   0.944449843209666   0.055553641999855   0.125012378936113   1.0000000
N2   N   0.277779824735153   0.722229029045222   0.624986754095191   1.0000000
N2   N   0.111102756417760   0.222218044875546   0.624997462352071   1.0000000
N2   N   0.444449843945033   0.222201853815277   0.625450366707032   1.0000000
N2   N   0.611110294381444   0.722243373405777   0.625040548889333   1.0000000
N2   N   0.944414886350733   0.722202536829290   0.624936798295114   1.0000000
N2   N   0.777784877067656   0.222222502874635   0.624958036382690   1.0000000
N2   N   0.111096286714900   0.722214810024120   0.125012381101409   1.0000000
N2   N   0.444455814846247   0.722244617525253   0.125047750725876   1.0000000
N2   N   0.277746696332477   0.222198156033518   0.124672719947994   1.0000000
N2   N   0.777744729998928   0.722201176188420   0.125071185717674   1.0000000
N2   N   0.611110294381444   0.222200254308992   0.124959451110664   1.0000000
N2   N   0.944449843209666   0.222229534543138   0.125012378936113   1.0000000
N2   N   0.111102321043408   0.388896842948305   0.624963805205089   1.0000000
N2   N   0.277779824735153   0.888884129023258   0.624986754095191   1.0000000
N2   N   0.611129424497511   0.888909146200260   0.624977627169425   1.0000000
N2   N   0.444335234669715   0.388834284001520   0.627115925097043   1.0000000
N2   N   0.944431901043863   0.888871392657696   0.624955977142218   1.0000000
N2   N   0.111098688486719   0.888873682391810   0.125007095294859   1.0000000
N2   N   0.777744729998928   0.388876887143836   0.624928814282324   1.0000000
N2   N   0.444459647250750   0.888896490292046   0.125019059256113   1.0000000
N2   N   0.277746696332477   0.388881873632288   0.124672719947994   1.0000000
N2   N   0.277776940667592   0.555568158214389   0.124996892298558   1.0000000
N2   N   0.611075776376070   0.388855944857288   0.124052476957158   1.0000000
N2   N   0.777784877067656   0.888895707526355   0.125041963617308   1.0000000
N2   N   0.944431901043863   0.388893841719495   0.125044022857785   1.0000000
N2   N   0.111098688486719   0.555558339428239   0.624992904705146   1.0000000
N2   N   0.277776940667592   0.055542115786542   0.625003107701445   1.0000000
N2   N   0.777726547040522   0.555529940186932   0.625006812491330   1.0000000
N2   N   0.611129424497511   0.055553611630579   0.624977627169425   1.0000000
N2   N   0.944449843209666   0.055553641999855   0.624987621063883   1.0000000
N2   N   0.059431490542477   0.113344110080092   0.375000000000000   1.0000000
N2   N   0.555721605529434   0.621252085683035   0.375000000000000   1.0000000
N2   N   0.388228533160761   0.106044501952646   0.375000000000000   1.0000000
N2   N   0.884570974080315   0.608952153706826   0.375000000000000   1.0000000
N2   N   0.724493397417542   0.111289416188251   0.375000000000000   1.0000000
N2   N   0.055557534049672   0.777779076393367   0.875000000000000   1.0000000
N2   N   0.388893566536225   0.777781047845391   0.875000000000000   1.0000000
N2   N   0.222224085823331   0.277778709578334   0.875000000000000   1.0000000
N2   N   0.722227267107603   0.777778179084061   0.875000000000000   1.0000000
N2   N   0.555560151238973   0.277780344120094   0.875000000000000   1.0000000
N2   N   0.888893939113467   0.277782370938626   0.875000000000000   1.0000000
N2   N   0.220317069149062   0.776825201241197   0.375000000000000   1.0000000
N2   N   0.059431490542477   0.279420713795724   0.375000000000000   1.0000000
N2   N   0.394995101537542   0.274690234319164   0.375000000000000   1.0000000
N2   N   0.556120927616443   0.782424677594267   0.375000000000000   1.0000000
N2   N   0.887836937818788   0.777703208112232   0.375000000000000   1.0000000
N2   N   0.723652821358968   0.276031164391869   0.375000000000000   1.0000000
N2   N   0.055557220971166   0.944444049790463   0.875000000000000   1.0000000
N2   N   0.388893566536225   0.944445852024172   0.875000000000000   1.0000000
N2   N   0.222222230929131   0.444446724608043   0.875000000000000   1.0000000
N2   N   0.555565104038059   0.444449218685694   0.875000000000000   1.0000000
N2   N   0.722225103801107   0.944444914924161   0.875000000000000   1.0000000
N2   N   0.888895253171407   0.444447894255709   0.875000000000000   1.0000000
N2   N   0.056525063307706   0.444776517431653   0.375000000000000   1.0000000
N2   N   0.220999609847855   0.942737794277984   0.375000000000000   1.0000000
N2   N   0.556194436818250   0.944763885075792   0.375000000000000   1.0000000
N2   N   0.394995101537541   0.453638200551715   0.375000000000000   1.0000000
N2   N   0.891381702326245   0.946488441695243   0.375000000000000   1.0000000
N2   N   0.717925512011634   0.440932930662591   0.375000000000000   1.0000000
N2   N   0.222222930085965   0.611112806567878   0.875000000000000   1.0000000
N2   N   0.055556659675034   0.111110098047331   0.875000000000000   1.0000000
N2   N   0.555560151238973   0.611113140452217   0.875000000000000   1.0000000
N2   N   0.388890892081581   0.111109427357805   0.875000000000000   1.0000000
N2   N   0.888895901736604   0.611114617534972   0.875000000000000   1.0000000
N2   N   0.053215983637441   0.610185735038698   0.375000000000000   1.0000000
N2   N   0.722225103801107   0.111113522210268   0.875000000000000   1.0000000
N2   N   0.225493389115650   0.112427299871281   0.375000000000000   1.0000000
N2   N   0.388228533160761   0.615517364541459   0.375000000000000   1.0000000
N2   N   0.717925512011634   0.610325914682385   0.375000000000000   1.0000000
N2   N   0.556120927616443   0.107029583355513   0.375000000000000   1.0000000
N2   N   0.388890892081581   0.611114798057113   0.875000000000000   1.0000000
N2   N   0.892215907988808   0.112774620661078   0.375000000000000   1.0000000
N2   N   0.222224957401613   0.777779145367476   0.875000000000000   1.0000000
N2   N   0.055556659675034   0.277779894961037   0.875000000000000   1.0000000
N2   N   0.388892495074046   0.277774621959529   0.875000000000000   1.0000000
N2   N   0.555558360840103   0.777778799194375   0.875000000000000   1.0000000
N2   N   0.888895253171407   0.777780692249028   0.875000000000000   1.0000000
N2   N   0.722227267107603   0.277782421356867   0.875000000000000   1.0000000
N2   N   0.053215983637441   0.776363581932077   0.375000000000000   1.0000000
N2   N   0.387966441598290   0.778851449431166   0.375000000000000   1.0000000
N2   N   0.228178975352399   0.280756154342871   0.375000000000000   1.0000000
N2   N   0.723652821358968   0.780954990300422   0.375000000000000   1.0000000
N2   N   0.555721605529434   0.267802853179739   0.375000000000000   1.0000000
N2   N   0.891381702326245   0.278226593964343   0.375000000000000   1.0000000
N2   N   0.055557220971166   0.444446504514036   0.875000000000000   1.0000000
N2   N   0.222222930085965   0.944443456851418   0.875000000000000   1.0000000
N2   N   0.555558395969172   0.944445864651239   0.875000000000000   1.0000000
N2   N   0.388892495074046   0.444451206447853   0.875000000000000   1.0000000
N2   N   0.888893939113467   0.944444901508173   0.875000000000000   1.0000000
N2   N   0.056525063307705   0.945081879209380   0.375000000000000   1.0000000
N2   N   0.722231470878158   0.444450263657717   0.875000000000000   1.0000000
N2   N   0.387966441598290   0.942448325500458   0.375000000000000   1.0000000
N2   N   0.225493389115650   0.446399422577702   0.375000000000000   1.0000000
N2   N   0.220999609847855   0.611595148903212   0.375000000000000   1.0000000
N2   N   0.724493397417542   0.946537314562623   0.375000000000000   1.0000000
N2   N   0.887836937818788   0.443467063039887   0.375000000000000   1.0000000
N2   N   0.055557534049672   0.611111790989640   0.875000000000000   1.0000000
N2   N   0.222222230929131   0.111108839654421   0.875000000000000   1.0000000
N2   N   0.722231470878158   0.611114540553772   0.875000000000000   1.0000000
N2   N   0.555558360840103   0.111112894979061   0.875000000000000   1.0000000
N2   N   0.888892567790961   0.111112950562150   0.875000000000000   1.0000000
B2   B   0.114111484718355   0.057007277865444   0.375000000000000   1.0000000
B2   B   0.607715606100090   0.566343556552385   0.375000000000000   1.0000000
B2   B   0.444647150627253   0.052392607327500   0.375000000000000   1.0000000
B2   B   0.941900003836698   0.554500507689676   0.375000000000000   1.0000000
B2   B   0.781005367228222   0.057169350280781   0.375000000000000   1.0000000
B2   B   0.111118320384333   0.722225826858832   0.875000000000000   1.0000000
B2   B   0.444439318372972   0.722212067378345   0.875000000000000   1.0000000
B2   B   0.277788064233436   0.222231972914714   0.875000000000000   1.0000000
B2   B   0.777781828275305   0.722222132235107   0.875000000000000   1.0000000
B2   B   0.611104923645751   0.222226822960848   0.875000000000000   1.0000000
B2   B   0.944458434680909   0.222227552374367   0.875000000000000   1.0000000
B2   B   0.276659094764107   0.722401577729863   0.375000000000000   1.0000000
B2   B   0.116450813434443   0.224892073383884   0.375000000000000   1.0000000
B2   B   0.444378544293975   0.215646109720745   0.375000000000000   1.0000000
B2   B   0.612960096787144   0.730028638370220   0.375000000000000   1.0000000
B2   B   0.941900003836689   0.720732829480362   0.375000000000000   1.0000000
B2   B   0.780463567454512   0.222040389130581   0.375000000000000   1.0000000
B2   B   0.111119485985130   0.888898039475294   0.875000000000000   1.0000000
B2   B   0.444443586832552   0.888888460082941   0.875000000000000   1.0000000
B2   B   0.277788064233436   0.388889424652047   0.875000000000000   1.0000000
B2   B   0.611099411135365   0.388891649223722   0.875000000000000   1.0000000
B2   B   0.777784916924524   0.888892116671263   0.875000000000000   1.0000000
B2   B   0.944456799272962   0.388891837657508   0.875000000000000   1.0000000
B2   B   0.114111484718355   0.390437540186243   0.375000000000000   1.0000000
B2   B   0.276659094764107   0.887590850367578   0.375000000000000   1.0000000
B2   B   0.613111951742009   0.891973847938709   0.375000000000000   1.0000000
B2   B   0.945332970716369   0.889607977836902   0.375000000000000   1.0000000
B2   B   0.776730639326619   0.387000379188146   0.375000000000000   1.0000000
B2   B   0.277779990832308   0.555548017821833   0.875000000000000   1.0000000
B2   B   0.111124041928011   0.055567035307498   0.875000000000000   1.0000000
B2   B   0.611099411135365   0.555541095244963   0.875000000000000   1.0000000
B2   B   0.444439318372972   0.055560584327958   0.875000000000000   1.0000000
B2   B   0.944456706622369   0.555559847548838   0.875000000000000   1.0000000
B2   B   0.110063813993261   0.555638716385079   0.375000000000000   1.0000000
B2   B   0.777786500803880   0.055559917068607   0.875000000000000   1.0000000
B2   B   0.277675165901544   0.053682619137235   0.375000000000000   1.0000000
B2   B   0.444378544293975   0.562065767906559   0.375000000000000   1.0000000
B2   B   0.772646805421143   0.552990069377240   0.375000000000000   1.0000000
B2   B   0.613111951742009   0.054471437136631   0.375000000000000   1.0000000
B2   B   0.444434536333890   0.555539886272010   0.875000000000000   1.0000000
B2   B   0.948165060143214   0.057763723258278   0.375000000000000   1.0000000
B2   B   0.277780390551910   0.722219657630269   0.875000000000000   1.0000000
B2   B   0.111127919927386   0.222230626630358   0.875000000000000   1.0000000
B2   B   0.444434536333890   0.222227983395214   0.875000000000000   1.0000000
B2   B   0.611104923645751   0.722211434018226   0.875000000000000   1.0000000
B2   B   0.944456706622369   0.722230192406876   0.875000000000000   1.0000000
B2   B   0.777784916924524   0.222226133586590   0.875000000000000   1.0000000
B2   B   0.109099231666737   0.721216282500036   0.375000000000000   1.0000000
B2   B   0.444647150627253   0.725587876633092   0.375000000000000   1.0000000
B2   B   0.284247314693859   0.225280710828856   0.375000000000000   1.0000000
B2   B   0.776730639326619   0.723063593471804   0.375000000000000   1.0000000
B2   B   0.612960096787144   0.216264791750250   0.375000000000000   1.0000000
B2   B   0.948165060143214   0.223734670218273   0.375000000000000   1.0000000
B2   B   0.111124041928011   0.388890339953841   0.875000000000000   1.0000000
B2   B   0.277780390551910   0.888894066254964   0.875000000000000   1.0000000
B2   B   0.611110601531110   0.888886353817660   0.875000000000000   1.0000000
B2   B   0.444438429208661   0.388885881270994   0.875000000000000   1.0000000
B2   B   0.944456799272962   0.888898294948779   0.875000000000000   1.0000000
B2   B   0.110063813993261   0.887758430941507   0.375000000000000   1.0000000
B2   B   0.777781828275305   0.388893029373532   0.875000000000000   1.0000000
B2   B   0.444644421565197   0.888988877449256   0.375000000000000   1.0000000
B2   B   0.284247314693859   0.392299937198330   0.375000000000000   1.0000000
B2   B   0.277675165901544   0.557325880097652   0.375000000000000   1.0000000
B2   B   0.607715606100096   0.374705382881037   0.375000000000000   1.0000000
B2   B   0.780463567454512   0.891756511657260   0.375000000000000   1.0000000
B2   B   0.945332970716369   0.389058326212789   0.375000000000000   1.0000000
B2   B   0.111119485985130   0.555554779843167   0.875000000000000   1.0000000
B2   B   0.277779990832308   0.055565306343820   0.875000000000000   1.0000000
B2   B   0.777780343910923   0.555556838622131   0.875000000000000   1.0000000
B2   B   0.611110601531110   0.055557581046775   0.875000000000000   1.0000000
B2   B   0.944458434680909   0.055564215639882   0.875000000000000   1.0000000
B2   B   0.055588381508336   0.111135352549639   0.125023659536724   1.0000000
B2   B   0.555490762676608   0.611085456020097   0.124430960710262   1.0000000
B2   B   0.388888055671690   0.111129503868529   0.124952841688375   1.0000000
B2   B   0.888856240567420   0.611094786950388   0.125008750535654   1.0000000
B2   B   0.722233172229681   0.111104583219831   0.124992407788724   1.0000000
B2   B   0.055557452893340   0.777783588983451   0.624998307798413   1.0000000
B2   B   0.388891055919783   0.777778700189380   0.624991495290514   1.0000000
B2   B   0.222256246813056   0.277794790073197   0.625133853816806   1.0000000
B2   B   0.722201183077718   0.777790714899709   0.625034605778271   1.0000000
B2   B   0.555490762676608   0.277738639989849   0.625569039289744   1.0000000
B2   B   0.888905739864165   0.277776759637989   0.624995771979941   1.0000000
B2   B   0.222227854485232   0.777780593909285   0.124998067247963   1.0000000
B2   B   0.055588381508336   0.277786362292033   0.125023659536724   1.0000000
B2   B   0.388854749893756   0.277789346482752   0.124275775972226   1.0000000
B2   B   0.555542381881870   0.777790522287505   0.124989397731504   1.0000000
B2   B   0.888875203216701   0.777777540421780   0.125015695529365   1.0000000
B2   B   0.722201183077718   0.277743801511341   0.124965394221733   1.0000000
B2   B   0.055572440089677   0.944463523685771   0.624982467448481   1.0000000
B2   B   0.388891055919783   0.944445689063747   0.624991495290514   1.0000000
B2   B   0.222244071958955   0.444432169396742   0.624998992976660   1.0000000
B2   B   0.555378589251316   0.444355961292322   0.626158587716750   1.0000000
B2   B   0.722233172229681   0.944461922343190   0.625007592211268   1.0000000
B2   B   0.888875203216701   0.444430996128263   0.624984304470641   1.0000000
B2   B   0.055572440089677   0.444442249737240   0.125017532551511   1.0000000
B2   B   0.222234916062802   0.944465690952684   0.125010716483050   1.0000000
B2   B   0.555560477862138   0.944446905597729   0.124997298985466   1.0000000
B2   B   0.388854749893756   0.444398736744339   0.124275775972226   1.0000000
B2   B   0.888905739864165   0.944462313559515   0.125004228020057   1.0000000
B2   B   0.722124160836205   0.444390863704553   0.124606490254292   1.0000000
B2   B   0.222234916062802   0.611102558443456   0.624989283516944   1.0000000
B2   B   0.055588381508336   0.111135352549639   0.624976340463282   1.0000000
B2   B   0.555490762676608   0.611085456020097   0.625569039289744   1.0000000
B2   B   0.388888055671690   0.111129503868529   0.625047158311624   1.0000000
B2   B   0.888856240567420   0.611094786950388   0.624991249464346   1.0000000
B2   B   0.055557452893340   0.611107197243226   0.125001692201585   1.0000000
B2   B   0.722233172229681   0.111104583219831   0.625007592211268   1.0000000
B2   B   0.222244071958955   0.111145235895551   0.125001007023343   1.0000000
B2   B   0.388888055671690   0.611091885136500   0.124952841688375   1.0000000
B2   B   0.722124160836208   0.611066630464997   0.124606490254292   1.0000000
B2   B   0.555542381881870   0.111085192927708   0.124989397731504   1.0000000
B2   B   0.388888055671690   0.611091885136505   0.625047158311623   1.0000000
B2   B   0.888916971161516   0.111125152247428   0.124997954438055   1.0000000
B2   B   0.222227854485232   0.777780593909285   0.625001932752040   1.0000000
B2   B   0.055588381508336   0.277786362292033   0.624976340463282   1.0000000
B2   B   0.388854749893756   0.277789346482752   0.625724224027770   1.0000000
B2   B   0.555542381881870   0.777790522287505   0.625010602268497   1.0000000
B2   B   0.888875203216701   0.777777540421780   0.624984304470641   1.0000000
B2   B   0.722201183077718   0.277743801511341   0.625034605778271   1.0000000
B2   B   0.055557452893340   0.777783588983451   0.125001692201585   1.0000000
B2   B   0.388891055919783   0.777778700189380   0.125008504709483   1.0000000
B2   B   0.222256246813056   0.277794790073197   0.124866146183190   1.0000000
B2   B   0.722201183077718   0.777790714899709   0.124965394221733   1.0000000
B2   B   0.555490762676608   0.277738639989849   0.124430960710262   1.0000000
B2   B   0.888905739864165   0.277776759637989   0.125004228020057   1.0000000
B2   B   0.055572440089677   0.444442249737240   0.624982467448481   1.0000000
B2   B   0.222234916062802   0.944465690952684   0.624989283516944   1.0000000
B2   B   0.555560477862138   0.944446905597729   0.625002701014532   1.0000000
B2   B   0.388854749893756   0.444398736744339   0.625724224027770   1.0000000
B2   B   0.888905739864165   0.944462313559515   0.624995771979941   1.0000000
B2   B   0.055572440089677   0.944463523685771   0.125017532551511   1.0000000
B2   B   0.722124160836208   0.444390863704553   0.625393509745702   1.0000000
B2   B   0.388891055919783   0.944445689063747   0.125008504709483   1.0000000
B2   B   0.222244071958955   0.444432169396742   0.125001007023343   1.0000000
B2   B   0.222234916062802   0.611102558443456   0.125010716483050   1.0000000
B2   B   0.555378589251316   0.444355961292322   0.123841412283252   1.0000000
B2   B   0.722233172229681   0.944461922343190   0.124992407788724   1.0000000
B2   B   0.888875203216701   0.444430996128263   0.125015695529365   1.0000000
B2   B   0.055557452893340   0.611107197243226   0.624998307798413   1.0000000
B2   B   0.222244071958952   0.111145235895551   0.624998992976660   1.0000000
B2   B   0.722124160836208   0.611066630464997   0.625393509745702   1.0000000
B2   B   0.555542381881870   0.111085192927708   0.625010602268497   1.0000000
B2   B   0.888916971161516   0.111125152247428   0.625002045561941   1.0000000


