data_1
_audit_creation_method   'vasp2cif'
_cell_length_a    14.93631414619966
_cell_length_b    14.936314146199727
_cell_length_c    13.341276283792837
_cell_angle_alpha    90.0
_cell_angle_beta    90.0
_cell_angle_gamma    119.99999999999984

_symmetry_space_group_name_H-M    'P 1'
loop_
_atom_site_label
_atom_site_type_symbol
_atom_site_fract_x
_atom_site_fract_y
_atom_site_fract_z
_atom_site_occupancy
Se2   Se   0.505569970110903   0.419451651722116   0.375000000000000   1.0000000
N2   N   0.111087484236252   0.055531146786022   0.125033620692668   1.0000000
N2   N   0.611067153043925   0.555546768867162   0.124000753833916   1.0000000
N2   N   0.444443954478077   0.055538748481688   0.125047854609466   1.0000000
N2   N   0.944399729266623   0.555539323467870   0.125070074769968   1.0000000
N2   N   0.777783894057759   0.055558613695547   0.124999007659731   1.0000000
N2   N   0.111082791856481   0.722208062594906   0.624988784263367   1.0000000
N2   N   0.444443954478077   0.722238539329725   0.624952145390533   1.0000000
N2   N   0.277729562327510   0.222190138903431   0.625316759962098   1.0000000
N2   N   0.777732190619484   0.722194865067330   0.624948209925041   1.0000000
N2   N   0.611095570137817   0.222194409429872   0.625066163630126   1.0000000
N2   N   0.944436775867794   0.222223968552335   0.624988400584536   1.0000000
N2   N   0.277769792018161   0.722224457528913   0.125012266129919   1.0000000
N2   N   0.111087054551869   0.222210193942599   0.125011856616193   1.0000000
N2   N   0.444435730072111   0.222197570118398   0.124527956793418   1.0000000
N2   N   0.611095570137817   0.722234494041274   0.124933836369873   1.0000000
N2   N   0.944399729266623   0.722193739132088   0.125070074769968   1.0000000
N2   N   0.777770767369389   0.222216829052762   0.125044992476270   1.0000000
N2   N   0.111085612772501   0.888866661666426   0.624997139294121   1.0000000
N2   N   0.444449617360005   0.888891475346666   0.624980139021634   1.0000000
N2   N   0.277729562327510   0.388872756757409   0.625316759962098   1.0000000
N2   N   0.611067153043925   0.388853717510093   0.625999246166085   1.0000000
N2   N   0.777770767369389   0.888887271649954   0.624955007523729   1.0000000
N2   N   0.944417591677257   0.388888120708315   0.624955842853254   1.0000000
N2   N   0.111087484236252   0.388889670783559   0.125033620692668   1.0000000
N2   N   0.277769792018161   0.888878667822578   0.125012266129919   1.0000000
N2   N   0.611116767033859   0.888902387058337   0.125027791743591   1.0000000
N2   N   0.444320802710121   0.388827068021725   0.122808053169136   1.0000000
N2   N   0.944417591677257   0.888862804302269   0.125044157146747   1.0000000
N2   N   0.777732190619484   0.388870658885485   0.125051790074958   1.0000000
N2   N   0.277764413799563   0.555561758039537   0.625003981577547   1.0000000
N2   N   0.111087484236252   0.055531146786022   0.624966379307331   1.0000000
N2   N   0.611067153043925   0.555546768867162   0.625999246166085   1.0000000
N2   N   0.444443954478077   0.055538748481688   0.624952145390533   1.0000000
N2   N   0.944399729266623   0.555539323467870   0.624929925230030   1.0000000
N2   N   0.111085612772501   0.555552284439403   0.125002860705879   1.0000000
N2   N   0.777783894057759   0.055558613695547   0.625000992340270   1.0000000
N2   N   0.277764413799563   0.055535989093360   0.124996018422453   1.0000000
N2   N   0.444435730072111   0.555571493287050   0.124527956793418   1.0000000
N2   N   0.777716776444110   0.555525054888723   0.124956970712867   1.0000000
N2   N   0.611116767033859   0.055547713308853   0.125027791743591   1.0000000
N2   N   0.444435730072111   0.555571493287050   0.625472043206582   1.0000000
N2   N   0.944436775867794   0.055546140648795   0.125011599415464   1.0000000
N2   N   0.277769792018161   0.722224457528913   0.624987733870083   1.0000000
N2   N   0.111087054551869   0.222210193942599   0.624988143383808   1.0000000
N2   N   0.444435730072111   0.222197570118398   0.625472043206582   1.0000000
N2   N   0.611095570137817   0.722234494041274   0.625066163630126   1.0000000
N2   N   0.944399729266623   0.722193739132088   0.624929925230030   1.0000000
N2   N   0.777770767369389   0.222216829052762   0.624955007523729   1.0000000
N2   N   0.111082791856481   0.722208062594906   0.125011215736633   1.0000000
N2   N   0.444443954478077   0.722238539329725   0.125047854609466   1.0000000
N2   N   0.277729562327510   0.222190138903431   0.124683240037903   1.0000000
N2   N   0.777732190619484   0.722194865067330   0.125051790074958   1.0000000
N2   N   0.611095570137817   0.222194409429872   0.124933836369873   1.0000000
N2   N   0.944436775867794   0.222223968552335   0.125011599415464   1.0000000
N2   N   0.111087484236252   0.388889670783559   0.624966379307331   1.0000000
N2   N   0.277769792018161   0.888878667822578   0.624987733870083   1.0000000
N2   N   0.611116767033859   0.888902387058337   0.624972208256410   1.0000000
N2   N   0.444320802710121   0.388827068021725   0.627191946830863   1.0000000
N2   N   0.944417591677257   0.888862804302269   0.624955842853254   1.0000000
N2   N   0.111085612772501   0.888866661666426   0.125002860705879   1.0000000
N2   N   0.777732190619484   0.388870658885485   0.624948209925041   1.0000000
N2   N   0.444449617360005   0.888891475346666   0.125019860978365   1.0000000
N2   N   0.277729562327510   0.388872756757409   0.124683240037903   1.0000000
N2   N   0.277764413799563   0.555561758039537   0.124996018422453   1.0000000
N2   N   0.611067153043925   0.388853717510093   0.124000753833916   1.0000000
N2   N   0.777770767369389   0.888887271649954   0.125044992476270   1.0000000
N2   N   0.944417591677257   0.388888120708315   0.125044157146747   1.0000000
N2   N   0.111085612772501   0.555552284439403   0.624997139294121   1.0000000
N2   N   0.277764413799563   0.055535989093360   0.625003981577547   1.0000000
N2   N   0.777716776444110   0.555525054888723   0.625043029287132   1.0000000
N2   N   0.611116767033859   0.055547713308853   0.624972208256410   1.0000000
N2   N   0.944436775867794   0.055546140648795   0.624988400584536   1.0000000
N2   N   0.057883123046009   0.112574724427796   0.375000000000000   1.0000000
N2   N   0.554201310894173   0.620467981344324   0.375000000000000   1.0000000
N2   N   0.386690394219701   0.105289986745826   0.375000000000000   1.0000000
N2   N   0.883049844091060   0.608191588712198   0.375000000000000   1.0000000
N2   N   0.722924367840636   0.110505567855592   0.375000000000000   1.0000000
N2   N   0.055563753512447   0.777782743878040   0.875000000000000   1.0000000
N2   N   0.388901934634636   0.777784738652960   0.875000000000000   1.0000000
N2   N   0.222230586399096   0.277781959866215   0.875000000000000   1.0000000
N2   N   0.722237128365370   0.777782496468299   0.875000000000000   1.0000000
N2   N   0.555568130310301   0.277785615627603   0.875000000000000   1.0000000
N2   N   0.888903932563751   0.277786835972625   0.875000000000000   1.0000000
N2   N   0.218772301527211   0.776052817430272   0.375000000000000   1.0000000
N2   N   0.057883123046009   0.278641731951548   0.375000000000000   1.0000000
N2   N   0.393452588129597   0.273916050336981   0.375000000000000   1.0000000
N2   N   0.554576634255300   0.781634796921269   0.375000000000000   1.0000000
N2   N   0.886297214930231   0.776929665161025   0.375000000000000   1.0000000
N2   N   0.722114148212879   0.275268208455271   0.375000000000000   1.0000000
N2   N   0.055563018263738   0.944448042476759   0.875000000000000   1.0000000
N2   N   0.388901934634636   0.944450529315012   0.875000000000000   1.0000000
N2   N   0.222229249983019   0.444450083818063   0.875000000000000   1.0000000
N2   N   0.555572526609355   0.444452929971342   0.875000000000000   1.0000000
N2   N   0.722235231659382   0.944448772395674   0.875000000000000   1.0000000
N2   N   0.888901436440192   0.444450797758809   0.875000000000000   1.0000000
N2   N   0.054978814595126   0.443999746101970   0.375000000000000   1.0000000
N2   N   0.219457393271100   0.941979512474707   0.375000000000000   1.0000000
N2   N   0.554623245137056   0.943978289235192   0.375000000000000   1.0000000
N2   N   0.393452588129597   0.452869871125951   0.375000000000000   1.0000000
N2   N   0.889833410632366   0.945716947696549   0.375000000000000   1.0000000
N2   N   0.716397970827890   0.440182214859355   0.375000000000000   1.0000000
N2   N   0.222230679390886   0.611116113874799   0.875000000000000   1.0000000
N2   N   0.055563770812988   0.111114240811542   0.875000000000000   1.0000000
N2   N   0.555568130310301   0.611115848016033   0.875000000000000   1.0000000
N2   N   0.388899474547418   0.111114807112511   0.875000000000000   1.0000000
N2   N   0.888902185549854   0.611117759441599   0.875000000000000   1.0000000
N2   N   0.051686908996785   0.609420489587037   0.375000000000000   1.0000000
N2   N   0.722235231659382   0.111119792597044   0.875000000000000   1.0000000
N2   N   0.223946191017396   0.111665956206049   0.375000000000000   1.0000000
N2   N   0.386690394219701   0.614733740807220   0.375000000000000   1.0000000
N2   N   0.716397970827890   0.609549089301873   0.375000000000000   1.0000000
N2   N   0.554576634255300   0.106275170667367   0.375000000000000   1.0000000
N2   N   0.388899474547418   0.611118000768249   0.875000000000000   1.0000000
N2   N   0.890655991680194   0.111994662506768   0.375000000000000   1.0000000
N2   N   0.222232736857669   0.777783035095502   0.875000000000000   1.0000000
N2   N   0.055563770812988   0.277782863334782   0.875000000000000   1.0000000
N2   N   0.388898840509866   0.277778292176599   0.875000000000000   1.0000000
N2   N   0.555566769729358   0.777781562691765   0.875000000000000   1.0000000
N2   N   0.888901436440192   0.777783972014718   0.875000000000000   1.0000000
N2   N   0.722237128365370   0.277787965230405   0.875000000000000   1.0000000
N2   N   0.051686908996785   0.775599752743085   0.375000000000000   1.0000000
N2   N   0.386412257604398   0.778065391585120   0.375000000000000   1.0000000
N2   N   0.226641175732267   0.279987254532802   0.375000000000000   1.0000000
N2   N   0.722114148212879   0.780179273090945   0.375000000000000   1.0000000
N2   N   0.554201310894173   0.267066662883183   0.375000000000000   1.0000000
N2   N   0.889833410632366   0.277449796269152   0.375000000000000   1.0000000
N2   N   0.055563018263738   0.444448309120310   0.875000000000000   1.0000000
N2   N   0.222230679390886   0.944447898849424   0.875000000000000   1.0000000
N2   N   0.555567121105850   0.944450227219590   0.875000000000000   1.0000000
N2   N   0.388898840509866   0.444453881666603   0.875000000000000   1.0000000
N2   N   0.888903932563751   0.944450429924462   0.875000000000000   1.0000000
N2   N   0.054978814595126   0.944312401826485   0.375000000000000   1.0000000
N2   N   0.722238688781835   0.444454592430166   0.875000000000000   1.0000000
N2   N   0.386412257604398   0.941680199352613   0.375000000000000   1.0000000
N2   N   0.223946191017396   0.445613568144683   0.375000000000000   1.0000000
N2   N   0.219457393271100   0.610811214129729   0.375000000000000   1.0000000
N2   N   0.722924367840636   0.945752133318379   0.375000000000000   1.0000000
N2   N   0.886297214930231   0.442700883102545   0.375000000000000   1.0000000
N2   N   0.055563753512447   0.611114342967743   0.875000000000000   1.0000000
N2   N   0.222229249983019   0.111112499498293   0.875000000000000   1.0000000
N2   N   0.722238688781835   0.611117429685005   0.875000000000000   1.0000000
N2   N   0.555566769729358   0.111118540370931   0.875000000000000   1.0000000
N2   N   0.888900373039483   0.111116853186412   0.875000000000000   1.0000000
B2   B   0.112563944428654   0.056240495068077   0.375000000000000   1.0000000
B2   B   0.606174343135544   0.565534533117999   0.375000000000000   1.0000000
B2   B   0.443096510985545   0.051636598411717   0.375000000000000   1.0000000
B2   B   0.940361767079000   0.553728722510784   0.375000000000000   1.0000000
B2   B   0.779438425203543   0.056385879268439   0.375000000000000   1.0000000
B2   B   0.111122327192819   0.722227830263074   0.875000000000000   1.0000000
B2   B   0.444447856817895   0.722216136711018   0.875000000000000   1.0000000
B2   B   0.277792794732895   0.222233925751500   0.875000000000000   1.0000000
B2   B   0.777789907443854   0.722226251654984   0.875000000000000   1.0000000
B2   B   0.611113188197887   0.222230945343973   0.875000000000000   1.0000000
B2   B   0.944466633773905   0.222230912228310   0.875000000000000   1.0000000
B2   B   0.275093688573764   0.721613726397096   0.375000000000000   1.0000000
B2   B   0.114916365159756   0.224124849246542   0.375000000000000   1.0000000
B2   B   0.442861320645742   0.214901303554687   0.375000000000000   1.0000000
B2   B   0.611420247493262   0.729241896323478   0.375000000000000   1.0000000
B2   B   0.940361767079000   0.719966377901550   0.375000000000000   1.0000000
B2   B   0.778907560396700   0.221262617532794   0.375000000000000   1.0000000
B2   B   0.111125046405842   0.888900347006346   0.875000000000000   1.0000000
B2   B   0.444452487607876   0.888892910470604   0.875000000000000   1.0000000
B2   B   0.277792794732895   0.388892202314722   0.875000000000000   1.0000000
B2   B   0.611105800273931   0.388896071471880   0.875000000000000   1.0000000
B2   B   0.777789930409515   0.888894883033869   0.875000000000000   1.0000000
B2   B   0.944464200458716   0.388896210596621   0.875000000000000   1.0000000
B2   B   0.112563944428654   0.389656782693905   0.375000000000000   1.0000000
B2   B   0.275093688573764   0.886813295509998   0.375000000000000   1.0000000
B2   B   0.611534708120203   0.891179408395782   0.375000000000000   1.0000000
B2   B   0.943784084425475   0.888830838851314   0.375000000000000   1.0000000
B2   B   0.775180314455037   0.386233075237623   0.375000000000000   1.0000000
B2   B   0.277786950310356   0.555552097686211   0.875000000000000   1.0000000
B2   B   0.111130418858647   0.055569434639421   0.875000000000000   1.0000000
B2   B   0.611105800273931   0.555543062135378   0.875000000000000   1.0000000
B2   B   0.444447856817895   0.055565053440214   0.875000000000000   1.0000000
B2   B   0.944462477663647   0.555563000133167   0.875000000000000   1.0000000
B2   B   0.108519151653395   0.554860581684444   0.375000000000000   1.0000000
B2   B   0.777790892490669   0.055562112912003   0.875000000000000   1.0000000
B2   B   0.276124900245912   0.052932549556491   0.375000000000000   1.0000000
B2   B   0.442861320645742   0.561293350424390   0.375000000000000   1.0000000
B2   B   0.771122062121625   0.552227697727482   0.375000000000000   1.0000000
B2   B   0.611534708120203   0.053688633057748   0.375000000000000   1.0000000
B2   B   0.444441242016300   0.555542086820157   0.875000000000000   1.0000000
B2   B   0.946623658295802   0.056995202452654   0.375000000000000   1.0000000
B2   B   0.277786932481197   0.722223085711325   0.875000000000000   1.0000000
B2   B   0.111135792189173   0.222234562761251   0.875000000000000   1.0000000
B2   B   0.444441242016300   0.222232488529481   0.875000000000000   1.0000000
B2   B   0.611113188197887   0.722215576187242   0.875000000000000   1.0000000
B2   B   0.944462477663647   0.722232810863817   0.875000000000000   1.0000000
B2   B   0.777789930409515   0.222228380708975   0.875000000000000   1.0000000
B2   B   0.107550982427527   0.720442157880425   0.375000000000000   1.0000000
B2   B   0.443096510985545   0.724793245907166   0.375000000000000   1.0000000
B2   B   0.282724439195866   0.224515991902551   0.375000000000000   1.0000000
B2   B   0.775180314455037   0.722280572550743   0.375000000000000   1.0000000
B2   B   0.611420247493262   0.215511684503110   0.375000000000000   1.0000000
B2   B   0.946623658295802   0.222961789176483   0.375000000000000   1.0000000
B2   B   0.111130418858647   0.388894317552555   0.875000000000000   1.0000000
B2   B   0.277786932481197   0.888897180103202   0.875000000000000   1.0000000
B2   B   0.611118954285059   0.888889975898295   0.875000000000000   1.0000000
B2   B   0.444444167350217   0.388888750341773   0.875000000000000   1.0000000
B2   B   0.944464200458716   0.888901323195425   0.875000000000000   1.0000000
B2   B   0.108519151653395   0.886991903302280   0.375000000000000   1.0000000
B2   B   0.777789907443854   0.388896989122198   0.875000000000000   1.0000000
B2   B   0.443067930608951   0.888200631971140   0.375000000000000   1.0000000
B2   B   0.282724439195866   0.391541780626643   0.375000000000000   1.0000000
B2   B   0.276124900245912   0.556525684022753   0.375000000000000   1.0000000
B2   B   0.606174343135544   0.373973143350874   0.375000000000000   1.0000000
B2   B   0.778907560396700   0.890978276197234   0.375000000000000   1.0000000
B2   B   0.943784084425475   0.388286578907492   0.375000000000000   1.0000000
B2   B   0.111125046405842   0.555558032732823   0.875000000000000   1.0000000
B2   B   0.277786950310356   0.055568185957482   0.875000000000000   1.0000000
B2   B   0.777789100380801   0.555561216857067   0.875000000000000   1.0000000
B2   B   0.611118954285059   0.055562311720092   0.875000000000000   1.0000000
B2   B   0.944466633773905   0.055569054878932   0.875000000000000   1.0000000
B2   B   0.055576311298047   0.111127886469086   0.125021932492478   1.0000000
B2   B   0.555477395638052   0.611075629590751   0.124386747011479   1.0000000
B2   B   0.388874530045249   0.111124202012046   0.124944135110026   1.0000000
B2   B   0.888845597119890   0.611089465226618   0.125003684202227   1.0000000
B2   B   0.722222185644896   0.111100590574496   0.124996687149032   1.0000000
B2   B   0.055547624337934   0.777778368535111   0.624999142218525   1.0000000
B2   B   0.388880871724833   0.777772482874418   0.624991941741083   1.0000000
B2   B   0.222241436770611   0.277787385051974   0.625119453748930   1.0000000
B2   B   0.722186754712391   0.777782103693280   0.625050994089077   1.0000000
B2   B   0.555477395638052   0.277735099380636   0.625613252988522   1.0000000
B2   B   0.888892723002844   0.277771506714003   0.624993463617588   1.0000000
B2   B   0.222217492404562   0.777775412868949   0.124993576426383   1.0000000
B2   B   0.055576311298047   0.277781758162298   0.125021932492478   1.0000000
B2   B   0.388836083265800   0.277784462789098   0.124240624873716   1.0000000
B2   B   0.555530654841201   0.777782929155105   0.124981848976031   1.0000000
B2   B   0.888862615804354   0.777771172124163   0.125014526161737   1.0000000
B2   B   0.722186754712391   0.277737984352447   0.124949005910922   1.0000000
B2   B   0.055559740406911   0.944455189753446   0.624986142471429   1.0000000
B2   B   0.388880871724833   0.944441722183750   0.624991941741083   1.0000000
B2   B   0.222230724906898   0.444426446973994   0.624996012452478   1.0000000
B2   B   0.555364339924094   0.444348836628711   0.626231074162346   1.0000000
B2   B   0.722222185644896   0.944454928403735   0.625003312850969   1.0000000
B2   B   0.888862615804354   0.444424777013527   0.624985473838261   1.0000000
B2   B   0.055559740406911   0.444437883986792   0.125013857528571   1.0000000
B2   B   0.222224021488075   0.944459377244338   0.125008677185892   1.0000000
B2   B   0.555550569241140   0.944441951287235   0.125001026235678   1.0000000
B2   B   0.388836083265800   0.444384953810036   0.124240624873716   1.0000000
B2   B   0.888892723002844   0.944454549622175   0.125006536382412   1.0000000
B2   B   0.722112438631845   0.444385118905030   0.124567264556336   1.0000000
B2   B   0.222224021488075   0.611097977577071   0.624991322814107   1.0000000
B2   B   0.055576311298047   0.111127886469086   0.624978067507524   1.0000000
B2   B   0.555477395638052   0.611075629590751   0.625613252988522   1.0000000
B2   B   0.388874530045249   0.111124202012046   0.625055864889974   1.0000000
B2   B   0.888845597119890   0.611089465226618   0.624996315797771   1.0000000
B2   B   0.055547624337934   0.611102589136159   0.125000857781474   1.0000000
B2   B   0.722222185644896   0.111100590574496   0.625003312850969   1.0000000
B2   B   0.222230724906898   0.111137611266239   0.125003987547523   1.0000000
B2   B   0.388874530045249   0.611083661366544   0.124944135110026   1.0000000
B2   B   0.722112438631845   0.611060653060152   0.124567264556336   1.0000000
B2   B   0.555530654841201   0.111081059019431   0.124981848976031   1.0000000
B2   B   0.388874530045249   0.611083661366544   0.625055864889974   1.0000000
B2   B   0.888904272317457   0.111118802825400   0.124997606228235   1.0000000
B2   B   0.222217492404562   0.777775412868949   0.625006423573617   1.0000000
B2   B   0.055576311298047   0.277781758162298   0.624978067507524   1.0000000
B2   B   0.388836083265800   0.277784462789098   0.625759375126285   1.0000000
B2   B   0.555530654841201   0.777782929155105   0.625018151023966   1.0000000
B2   B   0.888862615804354   0.777771172124163   0.624985473838261   1.0000000
B2   B   0.722186754712391   0.277737984352447   0.625050994089077   1.0000000
B2   B   0.055547624337934   0.777778368535111   0.125000857781473   1.0000000
B2   B   0.388880871724833   0.777772482874418   0.125008058258918   1.0000000
B2   B   0.222241436770611   0.277787385051974   0.124880546251071   1.0000000
B2   B   0.722186754712391   0.777782103693280   0.124949005910922   1.0000000
B2   B   0.555477395638052   0.277735099380636   0.124386747011479   1.0000000
B2   B   0.888892723002844   0.277771506714003   0.125006536382412   1.0000000
B2   B   0.055559740406911   0.444437883986792   0.624986142471429   1.0000000
B2   B   0.222224021488075   0.944459377244338   0.624991322814107   1.0000000
B2   B   0.555550569241140   0.944441951287235   0.624998973764322   1.0000000
B2   B   0.388836083265800   0.444384953810036   0.625759375126285   1.0000000
B2   B   0.888892723002844   0.944454549622175   0.624993463617588   1.0000000
B2   B   0.055559740406911   0.944455189753446   0.125013857528571   1.0000000
B2   B   0.722112438631845   0.444385118905030   0.625432735443664   1.0000000
B2   B   0.388880871724833   0.944441722183750   0.125008058258918   1.0000000
B2   B   0.222230724906898   0.444426446973994   0.125003987547523   1.0000000
B2   B   0.222224021488075   0.611097977577071   0.125008677185892   1.0000000
B2   B   0.555364339924094   0.444348836628711   0.123768925837654   1.0000000
B2   B   0.722222185644896   0.944454928403735   0.124996687149032   1.0000000
B2   B   0.888862615804354   0.444424777013527   0.125014526161737   1.0000000
B2   B   0.055547624337934   0.611102589136159   0.624999142218525   1.0000000
B2   B   0.222230724906898   0.111137611266239   0.624996012452478   1.0000000
B2   B   0.722112438631845   0.611060653060152   0.625432735443664   1.0000000
B2   B   0.555530654841201   0.111081059019431   0.625018151023966   1.0000000
B2   B   0.888904272317457   0.111118802825400   0.625002393771766   1.0000000


