data_1
_audit_creation_method   'vasp2cif'
_cell_length_a    17.52789999999977
_cell_length_b    17.52789999999977
_cell_length_c    15.0
_cell_angle_alpha    90.0
_cell_angle_beta    90.0
_cell_angle_gamma    119.99999999999916

_symmetry_space_group_name_H-M    'P 1'
loop_
_atom_site_label
_atom_site_type_symbol
_atom_site_fract_x
_atom_site_fract_y
_atom_site_fract_z
_atom_site_occupancy
B2   B   0.906167725208334   0.953534212558582   0.111023443418212   1.0000000
B2   B   0.904679154934011   0.095322866261986   0.111015319631236   1.0000000
B2   B   0.904176140436648   0.237802417063826   0.111038854838313   1.0000000
B2   B   0.904679154934011   0.380784982363022   0.111015319631236   1.0000000
B2   B   0.906167725208334   0.524063917897755   0.111023443418212   1.0000000
B2   B   0.905544502574538   0.667095855702803   0.111048516804063   1.0000000
B2   B   0.905544502574538   0.809879052119737   0.111048516804063   1.0000000
B2   B   0.047810461186578   0.952191560009426   0.111018360143026   1.0000000
B2   B   0.046467808637422   0.093834295987662   0.111023443418212   1.0000000
B2   B   0.045616509854764   0.236688223043543   0.111009027358992   1.0000000
B2   B   0.045616509854764   0.380358692058220   0.111009027358992   1.0000000
B2   B   0.046467808637422   0.524063917897755   0.111023443418212   1.0000000
B2   B   0.047810461186578   0.667051017981149   0.111018360143026   1.0000000
B2   B   0.047906165320882   0.809669141062443   0.111000498803989   1.0000000
B2   B   0.190332880133560   0.952095855875121   0.111000498803989   1.0000000
B2   B   0.190122969076267   0.094457518621458   0.111048516804063   1.0000000
B2   B   0.186080785208848   0.233710492597465   0.111021300725900   1.0000000
B2   B   0.185910938969843   0.378670672108421   0.111013748033500   1.0000000
B2   B   0.186080785208848   0.523800697859385   0.111021300725900   1.0000000
B2   B   0.190122969076267   0.667095855702803   0.111048516804063   1.0000000
B2   B   0.190332880133560   0.809669141062443   0.111000498803989   1.0000000
B2   B   0.332951003215849   0.952191560009426   0.111018360143026   1.0000000
B2   B   0.332906165494195   0.094457518621458   0.111048516804063   1.0000000
B2   B   0.333044420259212   0.237517224568425   0.111047881570323   1.0000000
B2   B   0.323749066855754   0.373850315986479   0.111059770173315   1.0000000
B2   B   0.323749066855754   0.521329156116275   0.111059770173315   1.0000000
B2   B   0.333044420259212   0.666957600937787   0.111047881570323   1.0000000
B2   B   0.332906165494195   0.809879052119737   0.111048516804063   1.0000000
B2   B   0.475938103299244   0.953534212558582   0.111023443418212   1.0000000
B2   B   0.475938103299244   0.093834295987662   0.111023443418212   1.0000000
B2   B   0.476201323337613   0.233710492597465   0.111021300725900   1.0000000
B2   B   0.478672865080723   0.373850315986479   0.111059770173315   1.0000000
B2   B   0.478672865080723   0.676252954341244   0.111059770173315   1.0000000
B2   B   0.476201323337613   0.813921235987155   0.111021300725900   1.0000000
B2   B   0.619643329137783   0.954385511341240   0.111009027358992   1.0000000
B2   B   0.619217038832982   0.095322866261986   0.111015319631236   1.0000000
B2   B   0.619643329137783   0.236688223043543   0.111009027358992   1.0000000
B2   B   0.621331349087582   0.378670672108421   0.111013748033500   1.0000000
B2   B   0.626151705209525   0.521329156116275   0.111059770173315   1.0000000
B2   B   0.626151705209525   0.676252954341244   0.111059770173315   1.0000000
B2   B   0.621331349087582   0.814091082226161   0.111013748033500   1.0000000
B2   B   0.763313798152461   0.954385511341240   0.111009027358992   1.0000000
B2   B   0.762199604132178   0.095825880759349   0.111038854838313   1.0000000
B2   B   0.762199604132178   0.237802417063826   0.111038854838313   1.0000000
B2   B   0.763313798152461   0.380358692058220   0.111009027358992   1.0000000
B2   B   0.766291528598539   0.523800697859385   0.111021300725900   1.0000000
B2   B   0.762484796627578   0.666957600937787   0.111047881570323   1.0000000
B2   B   0.766291528598539   0.813921235987155   0.111021300725900   1.0000000
N2   N   0.953071072762951   0.905158262265453   0.111011803243737   1.0000000
N2   N   0.952249039397889   0.047752362520116   0.110997354355434   1.0000000
N2   N   0.951099796063958   0.189875498275036   0.111005665278116   1.0000000
N2   N   0.951099796063958   0.332651279906920   0.111005665278116   1.0000000
N2   N   0.952249039397889   0.475923658995771   0.110997354355434   1.0000000
N2   N   0.953071072762951   0.619341504172494   0.111011803243737   1.0000000
N2   N   0.953201396326068   0.762315045000535   0.111023891543254   1.0000000
N2   N   0.095367266137323   0.904634135780675   0.110980992611999   1.0000000
N2   N   0.094843139652546   0.046930329155055   0.111011803243737   1.0000000
N2   N   0.091810316948935   0.187654772491305   0.111001494030252   1.0000000
N2   N   0.091367848385116   0.331398271029558   0.110987693643197   1.0000000
N2   N   0.091810316948935   0.475584238131631   0.111001494030252   1.0000000
N2   N   0.094843139652546   0.619341504172494   0.111011803243737   1.0000000
N2   N   0.095367266137323   0.762163535587654   0.110980992611999   1.0000000
N2   N   0.237837866330352   0.904634135780675   0.110980992611999   1.0000000
N2   N   0.237686356917470   0.046800005591938   0.111023891543254   1.0000000
N2   N   0.236857609697845   0.188844803854156   0.111025749647268   1.0000000
N2   N   0.229319057611483   0.326354555291261   0.111011007792880   1.0000000
N2   N   0.229319057611483   0.474393195994215   0.111011007792880   1.0000000
N2   N   0.236857609697845   0.619441499518685   0.111025749647268   1.0000000
N2   N   0.237686356917470   0.762315045000535   0.111023891543254   1.0000000
N2   N   0.380659897745505   0.905158262265453   0.111011803243737   1.0000000
N2   N   0.380659897745505   0.046930329155055   0.111011803243737   1.0000000
N2   N   0.380559902399313   0.188844803854156   0.111025749647268   1.0000000
N2   N   0.380317301986905   0.332061895730808   0.111034779652636   1.0000000
N2   N   0.353271272754712   0.462349983214353   0.111034423088876   1.0000000
N2   N   0.380317301986905   0.619684099931094   0.111034779652636   1.0000000
N2   N   0.380559902399313   0.763143792220160   0.111025749647268   1.0000000
N2   N   0.524417163785366   0.908191084969064   0.111001494030252   1.0000000
N2   N   0.524077742921225   0.047752362520116   0.110997354355434   1.0000000
N2   N   0.524417163785366   0.187654772491305   0.111001494030252   1.0000000
N2   N   0.525608205922782   0.326354555291261   0.111011007792880   1.0000000
N2   N   0.537651418702644   0.462349983214353   0.111034423088876   1.0000000
N2   N   0.537651418702644   0.646730129163287   0.111034423088876   1.0000000
N2   N   0.525608205922782   0.770682344306522   0.111011007792880   1.0000000
N2   N   0.668603130887439   0.908633553532883   0.110987693643197   1.0000000
N2   N   0.667350122010076   0.048901605854048   0.111005665278116   1.0000000
N2   N   0.667350122010076   0.189875498275036   0.111005665278116   1.0000000
N2   N   0.668603130887439   0.331398271029558   0.110987693643197   1.0000000
N2   N   0.673646846625735   0.474393195994215   0.111011007792880   1.0000000
N2   N   0.667939506186189   0.619684099931094   0.111034779652636   1.0000000
N2   N   0.673646846625735   0.770682344306522   0.111011007792880   1.0000000
N2   N   0.812346629426693   0.908191084969064   0.111001494030252   1.0000000
N2   N   0.810125903642963   0.048901605854048   0.111005665278116   1.0000000
N2   N   0.809525273905997   0.190476128012001   0.111029334953679   1.0000000
N2   N   0.810125903642963   0.332651279906920   0.111005665278116   1.0000000
N2   N   0.812346629426693   0.475584238131631   0.111001494030252   1.0000000
N2   N   0.811156598063843   0.619441499518685   0.111025749647268   1.0000000
N2   N   0.811156598063843   0.763143792220160   0.111025749647268   1.0000000
Se2   Se   0.476191212381998   0.523810808815000   0.111042600462563   1.0000000


