data_1
_audit_creation_method   'vasp2cif'
_cell_length_a    17.52789999999977
_cell_length_b    17.52789999999977
_cell_length_c    15.0
_cell_angle_alpha    90.0
_cell_angle_beta    90.0
_cell_angle_gamma    119.99999999999916

_symmetry_space_group_name_H-M    'P 1'
loop_
_atom_site_label
_atom_site_type_symbol
_atom_site_fract_x
_atom_site_fract_y
_atom_site_fract_z
_atom_site_occupancy
B2   B   0.904643669745176   0.952189648450132   0.111022999164663   1.0000000
B2   B   0.904808348894221   0.095193528702184   0.111047060379614   1.0000000
B2   B   0.904804712512763   0.238166938749536   0.111037281347681   1.0000000
B2   B   0.904634863203572   0.381029371023559   0.111016298916971   1.0000000
B2   B   0.903666544500324   0.523598474940477   0.111023866215835   1.0000000
B2   B   0.903597725884683   0.666090416330511   0.111044273509257   1.0000000
B2   B   0.903672482952005   0.808650268041853   0.111029986412568   1.0000000
B2   B   0.047567805786013   0.952433946778980   0.111012713236559   1.0000000
B2   B   0.047812437570306   0.095357984013787   0.111024618569540   1.0000000
B2   B   0.047844666718579   0.238196105686389   0.111012450981567   1.0000000
B2   B   0.047819599790277   0.381018743656216   0.111023193408169   1.0000000
B2   B   0.047566925578238   0.523718004567336   0.111016962162265   1.0000000
B2   B   0.047223874380375   0.666455140885586   0.111022335601266   1.0000000
B2   B   0.047243041044910   0.809357583559875   0.111013282555363   1.0000000
B2   B   0.190644684255855   0.952758675972780   0.111002499505052   1.0000000
B2   B   0.191351540962421   0.096328679144161   0.111019424880962   1.0000000
B2   B   0.190910469172275   0.238509810645211   0.111013308363601   1.0000000
B2   B   0.190915102427386   0.380971993883405   0.111011553513735   1.0000000
B2   B   0.191350754887194   0.523589444931785   0.111016419130363   1.0000000
B2   B   0.190636547153705   0.666453078475695   0.111030758574564   1.0000000
B2   B   0.190472624556640   0.809529247781982   0.111014293313954   1.0000000
B2   B   0.333546991064924   0.952777993179812   0.111019659193145   1.0000000
B2   B   0.333911457967703   0.096403729051268   0.111031936237918   1.0000000
B2   B   0.335545950698745   0.240882548828237   0.111043417215748   1.0000000
B2   B   0.333595811363705   0.381090923616994   0.111051814048925   1.0000000
B2   B   0.335551749089398   0.523236045536886   0.111058589283019   1.0000000
B2   B   0.333916130444543   0.666085995999975   0.111046050105812   1.0000000
B2   B   0.333549151228208   0.809365397192439   0.111038145451666   1.0000000
B2   B   0.476284074526199   0.952434666931889   0.111019739881464   1.0000000
B2   B   0.476403594521692   0.096335279217809   0.111024628329605   1.0000000
B2   B   0.476762092791372   0.240875516520678   0.111024784576403   1.0000000
B2   B   0.480209770343519   0.388981784996443   0.111035028479231   1.0000000
B2   B   0.480217181075552   0.519783397376616   0.111038986659010   1.0000000
B2   B   0.476766064007144   0.664449996006169   0.111048015735457   1.0000000
B2   B   0.476412819419160   0.808651026132128   0.111027820616907   1.0000000
B2   B   0.618983486986077   0.952182147474369   0.111028508225641   1.0000000
B2   B   0.618972550258565   0.095366550863926   0.111022270826306   1.0000000
B2   B   0.619019541786547   0.238512710571589   0.111025842298002   1.0000000
B2   B   0.618920766190556   0.381080858537804   0.111022179201215   1.0000000
B2   B   0.611020129508537   0.519791875272956   0.111099276453453   1.0000000
B2   B   0.618911266112579   0.666406799268114   0.111021793926358   1.0000000
B2   B   0.619030079270591   0.809086502949054   0.111014709939120   1.0000000
B2   B   0.761805729510373   0.952157040444256   0.111017783817461   1.0000000
B2   B   0.761835014615309   0.095196917131506   0.111046112734831   1.0000000
B2   B   0.761793872141225   0.238207304956617   0.111047513030944   1.0000000
B2   B   0.761489139835319   0.380982724973391   0.111031217785932   1.0000000
B2   B   0.759126039244024   0.523239485736048   0.111026271590659   1.0000000
B2   B   0.759118385214348   0.664455485914096   0.111034195924957   1.0000000
B2   B   0.761491245465539   0.809090851220906   0.111021066756964   1.0000000
N2   N   0.951983067779067   0.904276290024418   0.111007780205236   1.0000000
N2   N   0.952462767184307   0.047539608881553   0.111019141060965   1.0000000
N2   N   0.952497090060642   0.190526316274997   0.111017480243154   1.0000000
N2   N   0.952459154824733   0.333487659893079   0.111007703590688   1.0000000
N2   N   0.951977894416737   0.476284166936334   0.111000706320846   1.0000000
N2   N   0.951648978194746   0.618826783691497   0.111011613714409   1.0000000
N2   N   0.951658538611477   0.761406259280947   0.111013509163515   1.0000000
N2   N   0.095203871038763   0.904797040166385   0.110989286366517   1.0000000
N2   N   0.095725571402848   0.048017876035382   0.111005825573851   1.0000000
N2   N   0.095555185563508   0.190631494894602   0.110998958842681   1.0000000
N2   N   0.095556562433398   0.333480679180203   0.110999723172803   1.0000000
N2   N   0.095725126446210   0.476277686412775   0.110999413007325   1.0000000
N2   N   0.095195266120598   0.618982827099274   0.111006950834059   1.0000000
N2   N   0.095026201593970   0.761800702859963   0.110995975288773   1.0000000
N2   N   0.238201603728947   0.904975922281216   0.110991280606941   1.0000000
N2   N   0.238596114270764   0.048343624007906   0.110999159202247   1.0000000
N2   N   0.239672999934658   0.192105148375685   0.111011139634697   1.0000000
N2   N   0.238489965718143   0.333530548431070   0.110993468533833   1.0000000
N2   N   0.239676508402179   0.476135562366864   0.111013243489988   1.0000000
N2   N   0.238595172681954   0.618823292691786   0.111005330787264   1.0000000
N2   N   0.238197832968954   0.761804448700677   0.111011604506087   1.0000000
N2   N   0.381019558124147   0.904806603884468   0.111010427003638   1.0000000
N2   N   0.381174959242352   0.048352683448072   0.111007371891805   1.0000000
N2   N   0.381803602779156   0.192182276243479   0.111015133517733   1.0000000
N2   N   0.384236214054728   0.337382691109726   0.111047568445071   1.0000000
N2   N   0.384242934816080   0.475428376469927   0.111060232647437   1.0000000
N2   N   0.381806079843872   0.618195646884481   0.111028172796276   1.0000000
N2   N   0.381178472081747   0.761406731125003   0.111014595183313   1.0000000
N2   N   0.523724355701999   0.904276742385411   0.111006177721047   1.0000000
N2   N   0.523717622830437   0.048023261080105   0.111004315792035   1.0000000
N2   N   0.523861119578022   0.192108817987531   0.111010178752846   1.0000000
N2   N   0.524575982709169   0.337380753416179   0.110998238987222   1.0000000
N2   N   0.524572625667479   0.615757765622272   0.111013597046073   1.0000000
N2   N   0.523866269068204   0.760324944236393   0.111019739653759   1.0000000
N2   N   0.666521499149670   0.904445658772917   0.111004493010454   1.0000000
N2   N   0.666514298469891   0.047542170773165   0.111017390411672   1.0000000
N2   N   0.666510553528705   0.190642398040808   0.111018111331050   1.0000000
N2   N   0.666470185595019   0.333532442930487   0.111014175720977   1.0000000
N2   N   0.662620707203109   0.475425366369878   0.111000759546748   1.0000000
N2   N   0.662618030521339   0.615764655699851   0.111005656333477   1.0000000
N2   N   0.666470692484866   0.761510446899376   0.110994820890788   1.0000000
N2   N   0.809370127559340   0.904446433208955   0.111002326481626   1.0000000
N2   N   0.809475435371784   0.047504360604006   0.111022948844815   1.0000000
N2   N   0.809471114813988   0.190530721312582   0.111025085359287   1.0000000
N2   N   0.809359378230062   0.333491987431980   0.111017851171363   1.0000000
N2   N   0.807892000560489   0.476139840129824   0.111014057516424   1.0000000
N2   N   0.807819623468044   0.618197729143479   0.111027615804487   1.0000000
N2   N   0.807895943625313   0.760328877730569   0.111020879597976   1.0000000


