data_1
_audit_creation_method   'vasp2cif'
_cell_length_a    14.93631414619966
_cell_length_b    14.936314146199727
_cell_length_c    13.341276283792837
_cell_angle_alpha    90.0
_cell_angle_beta    90.0
_cell_angle_gamma    119.99999999999984

_symmetry_space_group_name_H-M    'P 1'
loop_
_atom_site_label
_atom_site_type_symbol
_atom_site_fract_x
_atom_site_fract_y
_atom_site_fract_z
_atom_site_occupancy
C2   C   0.389893596071714   0.444925131554015   0.375000000000000   1.0000000
O2   O   0.558134619600557   0.443957445846534   0.375000000000000   1.0000000
N2   N   0.111002365171730   0.055493851891814   0.124211032215445   1.0000000
N2   N   0.610979482003358   0.555480607487839   0.124167942462543   1.0000000
N2   N   0.444321125633361   0.055501509477070   0.124026059474720   1.0000000
N2   N   0.944339428589059   0.555511440109496   0.124164457781987   1.0000000
N2   N   0.777647451698816   0.055493816513835   0.124552509331775   1.0000000
N2   N   0.111005502287190   0.722168914566284   0.625446053599301   1.0000000
N2   N   0.444317216395350   0.722177768572351   0.625859210735322   1.0000000
N2   N   0.277679628723785   0.222188552263517   0.626122179286536   1.0000000
N2   N   0.777663931342716   0.722154838161875   0.626064701448471   1.0000000
N2   N   0.610978861266433   0.222173351770447   0.626061595158523   1.0000000
N2   N   0.944314557616510   0.222168870734980   0.625515564891018   1.0000000
N2   N   0.277658432553042   0.722171136367293   0.124514807292242   1.0000000
N2   N   0.110994163808702   0.222163486273144   0.124102951729985   1.0000000
N2   N   0.444326658579036   0.222173223994082   0.123863473692208   1.0000000
N2   N   0.610984436554081   0.722159937970831   0.123958739011063   1.0000000
N2   N   0.944341167722792   0.722168240348031   0.124165637811567   1.0000000
N2   N   0.777638633758619   0.222173576913169   0.124270635783675   1.0000000
N2   N   0.110998002413188   0.888829304841644   0.625638316741770   1.0000000
N2   N   0.444313672756901   0.888839188313525   0.625698939591755   1.0000000
N2   N   0.277657563590112   0.388848142237510   0.626254554613992   1.0000000
N2   N   0.610984800947429   0.388857860563187   0.625801979189840   1.0000000
N2   N   0.777654394662105   0.888816946407617   0.625709501272467   1.0000000
N2   N   0.944318279925581   0.388843621434326   0.625783092414452   1.0000000
N2   N   0.110984123632248   0.388838659654625   0.124112031541342   1.0000000
N2   N   0.277661575294435   0.888845480480030   0.124432066674717   1.0000000
N2   N   0.610978079202757   0.888830938330210   0.124229840916944   1.0000000
N2   N   0.444360630405935   0.388856341716997   0.124078570222662   1.0000000
N2   N   0.944334331798514   0.888823900542844   0.124254474474416   1.0000000
N2   N   0.777660365983782   0.388852687794209   0.123932550409324   1.0000000
N2   N   0.277660437872704   0.555507068843849   0.625827819819733   1.0000000
N2   N   0.111002365171730   0.055493851891813   0.625788967784868   1.0000000
N2   N   0.610979482003358   0.555480607487839   0.625832057537547   1.0000000
N2   N   0.444321125633361   0.055501509477070   0.625973940525307   1.0000000
N2   N   0.944339428589059   0.555511440109495   0.625835542218359   1.0000000
N2   N   0.110995844119125   0.555502880588352   0.124381309341705   1.0000000
N2   N   0.777647451698816   0.055493816513835   0.625447490668337   1.0000000
N2   N   0.277663646039237   0.055507649182174   0.124080389390995   1.0000000
N2   N   0.444331518005949   0.555523671859913   0.123823516521910   1.0000000
N2   N   0.777670467059261   0.555508785447308   0.123826316240495   1.0000000
N2   N   0.610973842857012   0.055497342241970   0.124165425968364   1.0000000
N2   N   0.444331518005942   0.555523671859913   0.626176483477976   1.0000000
N2   N   0.944324519899303   0.055485317003684   0.124523891764521   1.0000000
N2   N   0.277658432553042   0.722171136367293   0.625485192707761   1.0000000
N2   N   0.110994163808702   0.222163486273144   0.625897048269927   1.0000000
N2   N   0.444326658579036   0.222173223994082   0.626136526308086   1.0000000
N2   N   0.610984436554081   0.722159937970831   0.626041260988884   1.0000000
N2   N   0.944341167722792   0.722168240348031   0.625834362188304   1.0000000
N2   N   0.777638633758619   0.222173576913169   0.625729364216248   1.0000000
N2   N   0.111005502287190   0.722168914566284   0.124553946400601   1.0000000
N2   N   0.444317216395350   0.722177768572351   0.124140789264406   1.0000000
N2   N   0.277679628723785   0.222188552263517   0.123877820713184   1.0000000
N2   N   0.777663931342716   0.722154838161875   0.123935298551399   1.0000000
N2   N   0.610978861266433   0.222173351770474   0.123938404841736   1.0000000
N2   N   0.944314557616510   0.222168870734981   0.124484435109227   1.0000000
N2   N   0.110984123632248   0.388838659654625   0.625887968458455   1.0000000
N2   N   0.277661575294435   0.888845480480030   0.625567933325033   1.0000000
N2   N   0.610978079202757   0.888830938330210   0.625770159082769   1.0000000
N2   N   0.444360630405935   0.388856341716997   0.625921429777385   1.0000000
N2   N   0.944334331798514   0.888823900542844   0.625745525525659   1.0000000
N2   N   0.110998002413188   0.888829304841644   0.124361683258219   1.0000000
N2   N   0.777660365983782   0.388852687794209   0.626067449590563   1.0000000
N2   N   0.444313672756901   0.888839188313525   0.124301060408308   1.0000000
N2   N   0.277657563590112   0.388848142237510   0.123745445386074   1.0000000
N2   N   0.277660437872704   0.555507068843849   0.124172180180548   1.0000000
N2   N   0.610984800947429   0.388857860563187   0.124198020810137   1.0000000
N2   N   0.777654394662105   0.888816946407617   0.124290498727620   1.0000000
N2   N   0.944318279925581   0.388843621434326   0.124216907585565   1.0000000
N2   N   0.110995844119125   0.555502880588352   0.625618690658130   1.0000000
N2   N   0.277663646039237   0.055507649182174   0.625919610609149   1.0000000
N2   N   0.777670467059261   0.555508785447308   0.626173683759284   1.0000000
N2   N   0.610973842857012   0.055497342241970   0.625834574031675   1.0000000
N2   N   0.944324519899316   0.055485317003684   0.625476108235644   1.0000000
N2   N   0.054951148485376   0.110359722983410   0.375000000000000   1.0000000
N2   N   0.557612044639774   0.612696594643031   0.375000000000000   1.0000000
N2   N   0.389344044606711   0.110648033615680   0.375000000000000   1.0000000
N2   N   0.889029408831983   0.611233146570522   0.375000000000000   1.0000000
N2   N   0.722505252269938   0.111313784562025   0.375000000000000   1.0000000
N2   N   0.055498394278964   0.777728287987571   0.875000000000000   1.0000000
N2   N   0.388839568219801   0.777729935480716   0.875000000000000   1.0000000
N2   N   0.222157226929783   0.277720437913723   0.875000000000000   1.0000000
N2   N   0.722172022357374   0.777732803751016   0.875000000000000   1.0000000
N2   N   0.555499812270828   0.277727944927397   0.875000000000000   1.0000000
N2   N   0.888830852449054   0.277725067917246   0.875000000000000   1.0000000
N2   N   0.222415613228747   0.778004682472440   0.375000000000000   1.0000000
N2   N   0.054930158215426   0.277456131709031   0.375000000000000   1.0000000
N2   N   0.390624603934599   0.276821371840966   0.375000000000000   1.0000000
N2   N   0.556381738853344   0.778582622729529   0.375000000000000   1.0000000
N2   N   0.889015640582816   0.777714255304383   0.375000000000000   1.0000000
N2   N   0.722590867150596   0.277969516096862   0.375000000000000   1.0000000
N2   N   0.055496859541418   0.944395964438795   0.875000000000000   1.0000000
N2   N   0.388838631419334   0.944396207530264   0.875000000000000   1.0000000
N2   N   0.222160155622772   0.444388775570061   0.875000000000000   1.0000000
N2   N   0.555498124577759   0.444394534270856   0.875000000000000   1.0000000
N2   N   0.722172204686382   0.944397722074278   0.875000000000000   1.0000000
N2   N   0.888831176389040   0.444393199639627   0.875000000000000   1.0000000
N2   N   0.054889578495265   0.444554527926269   0.375000000000000   1.0000000
N2   N   0.222471568999280   0.944633176772353   0.375000000000000   1.0000000
N2   N   0.556021111864740   0.944920559836225   0.375000000000000   1.0000000
N2   N   0.889154826169511   0.944484010304552   0.375000000000000   1.0000000
N2   N   0.722633965386499   0.444758069084446   0.375000000000000   1.0000000
N2   N   0.222164242710524   0.611056428986851   0.875000000000000   1.0000000
N2   N   0.055490857170802   0.111054103669242   0.875000000000000   1.0000000
N2   N   0.555503606051389   0.611059136258118   0.875000000000000   1.0000000
N2   N   0.388833166322960   0.111060401757323   0.875000000000000   1.0000000
N2   N   0.888829672138405   0.611060702291587   0.875000000000000   1.0000000
N2   N   0.055671240552918   0.611299115558864   0.375000000000000   1.0000000
N2   N   0.722166429578902   0.111058190742448   0.875000000000000   1.0000000
N2   N   0.222658941846999   0.111401487071098   0.375000000000000   1.0000000
N2   N   0.389761445687820   0.613554305571363   0.375000000000000   1.0000000
N2   N   0.721977955225851   0.610443653809611   0.375000000000000   1.0000000
N2   N   0.556029974995919   0.111429722661726   0.375000000000000   1.0000000
N2   N   0.388836925583048   0.611058010592833   0.875000000000000   1.0000000
N2   N   0.888873662124364   0.111062060099037   0.375000000000000   1.0000000
N2   N   0.222167556895450   0.777726709787617   0.875000000000000   1.0000000
N2   N   0.055491514652000   0.277721043780180   0.875000000000000   1.0000000
N2   N   0.388829799026547   0.277727935698308   0.875000000000000   1.0000000
N2   N   0.555507998756557   0.777730823663591   0.875000000000000   1.0000000
N2   N   0.888835162628235   0.777733466711023   0.875000000000000   1.0000000
N2   N   0.722166125001455   0.277724491098854   0.875000000000000   1.0000000
N2   N   0.055730386200020   0.777916387274395   0.375000000000000   1.0000000
N2   N   0.389248960959365   0.778832782804139   0.375000000000000   1.0000000
N2   N   0.220281021727968   0.276085139783177   0.375000000000000   1.0000000
N2   N   0.723322724851424   0.778575862966474   0.375000000000000   1.0000000
N2   N   0.556226268983080   0.278272560534603   0.375000000000000   1.0000000
N2   N   0.888824446654423   0.277832962167783   0.375000000000000   1.0000000
N2   N   0.055492719752777   0.444391000913448   0.875000000000000   1.0000000
N2   N   0.222166049793783   0.944395023224117   0.875000000000000   1.0000000
N2   N   0.555504896442094   0.944397145963033   0.875000000000000   1.0000000
N2   N   0.388832882265761   0.444390757114717   0.875000000000000   1.0000000
N2   N   0.888836626151728   0.944397976615835   0.875000000000000   1.0000000
N2   N   0.055771918151208   0.944489070735595   0.375000000000000   1.0000000
N2   N   0.722163231700948   0.444392975971703   0.875000000000000   1.0000000
N2   N   0.389212950678641   0.944712707017922   0.375000000000000   1.0000000
N2   N   0.220393939592677   0.444067436454528   0.375000000000000   1.0000000
N2   N   0.222421769899224   0.611294931841040   0.375000000000000   1.0000000
N2   N   0.722692369382882   0.944812884873847   0.375000000000000   1.0000000
N2   N   0.888878826765796   0.444626703133679   0.375000000000000   1.0000000
N2   N   0.055494964248039   0.611056944178707   0.875000000000000   1.0000000
N2   N   0.222158318055034   0.111057928786749   0.875000000000000   1.0000000
N2   N   0.722162802091155   0.611061931479956   0.875000000000000   1.0000000
N2   N   0.555500995621048   0.111058388363193   0.875000000000000   1.0000000
N2   N   0.888831618286714   0.111057705524606   0.875000000000000   1.0000000
B2   B   0.110948690639995   0.055415110975371   0.375000000000000   1.0000000
B2   B   0.613360767585864   0.559191230187578   0.375000000000000   1.0000000
B2   B   0.444946308447511   0.055178519536207   0.375000000000000   1.0000000
B2   B   0.944902575972176   0.555717345543577   0.375000000000000   1.0000000
B2   B   0.778073160390702   0.055797684235346   0.375000000000000   1.0000000
B2   B   0.111063825964830   0.722175179254482   0.875000000000000   1.0000000
B2   B   0.444390998969413   0.722199001760339   0.875000000000000   1.0000000
B2   B   0.277659798006738   0.222131568101765   0.875000000000000   1.0000000
B2   B   0.777760831338513   0.722229474116845   0.875000000000000   1.0000000
B2   B   0.611072877934197   0.222132058402693   0.875000000000000   1.0000000
B2   B   0.944376085126841   0.222155399519756   0.875000000000000   1.0000000
B2   B   0.278039462520413   0.722641142330003   0.375000000000000   1.0000000
B2   B   0.109313058860492   0.220846336027809   0.375000000000000   1.0000000
B2   B   0.444894639637612   0.220186508544492   0.375000000000000   1.0000000
B2   B   0.613130925265143   0.724681139985852   0.375000000000000   1.0000000
B2   B   0.944975216980398   0.722625840811678   0.375000000000000   1.0000000
B2   B   0.778159282170441   0.222091268911259   0.375000000000000   1.0000000
B2   B   0.111051104292079   0.888839645599237   0.875000000000000   1.0000000
B2   B   0.444396981624468   0.888840932854724   0.875000000000000   1.0000000
B2   B   0.277657539393410   0.388814725980990   0.875000000000000   1.0000000
B2   B   0.611075419403643   0.388817755629195   0.875000000000000   1.0000000
B2   B   0.777745796078484   0.888881431693448   0.875000000000000   1.0000000
B2   B   0.944394941772951   0.388822122206354   0.875000000000000   1.0000000
B2   B   0.109541443178638   0.388550382534367   0.375000000000000   1.0000000
B2   B   0.278048342695430   0.889036573772945   0.375000000000000   1.0000000
B2   B   0.611845302365788   0.889785617721457   0.375000000000000   1.0000000
B2   B   0.944758540402866   0.889157507309624   0.375000000000000   1.0000000
B2   B   0.778670092387588   0.388581248026178   0.375000000000000   1.0000000
B2   B   0.277696484287185   0.555506229906673   0.875000000000000   1.0000000
B2   B   0.111020285473556   0.055489153197609   0.875000000000000   1.0000000
B2   B   0.611077117292734   0.555548756236975   0.875000000000000   1.0000000
B2   B   0.444386605948067   0.055473979789880   0.875000000000000   1.0000000
B2   B   0.944414347332654   0.555508204669756   0.875000000000000   1.0000000
B2   B   0.111100051023324   0.555653979062149   0.375000000000000   1.0000000
B2   B   0.777733823895642   0.055510372256368   0.875000000000000   1.0000000
B2   B   0.277844524489602   0.055301198519922   0.375000000000000   1.0000000
B2   B   0.446787154229282   0.561064243474044   0.375000000000000   1.0000000
B2   B   0.779092437498889   0.556109160610850   0.375000000000000   1.0000000
B2   B   0.611665474189142   0.055761949644691   0.375000000000000   1.0000000
B2   B   0.444371018843378   0.555532627385500   0.875000000000000   1.0000000
B2   B   0.944164063497863   0.055342939419348   0.375000000000000   1.0000000
B2   B   0.277720533693214   0.722176385616612   0.875000000000000   1.0000000
B2   B   0.111004409654883   0.222144087928254   0.875000000000000   1.0000000
B2   B   0.444364551209958   0.222124891476834   0.875000000000000   1.0000000
B2   B   0.611077919382517   0.722227298132184   0.875000000000000   1.0000000
B2   B   0.944416902361681   0.722199696505731   0.875000000000000   1.0000000
B2   B   0.777739773327329   0.222148784151754   0.875000000000000   1.0000000
B2   B   0.111380705200652   0.722444400757215   0.375000000000000   1.0000000
B2   B   0.445146162812480   0.724337197862597   0.375000000000000   1.0000000
B2   B   0.277028643887111   0.221785852525711   0.375000000000000   1.0000000
B2   B   0.778601827652284   0.723230162705642   0.375000000000000   1.0000000
B2   B   0.612116306605314   0.221852247281968   0.375000000000000   1.0000000
B2   B   0.944056413544924   0.221981340257646   0.375000000000000   1.0000000
B2   B   0.111020869606196   0.388819928406422   0.875000000000000   1.0000000
B2   B   0.277719909116338   0.888828079851974   0.875000000000000   1.0000000
B2   B   0.611074053802804   0.888867485479022   0.875000000000000   1.0000000
B2   B   0.444347807379825   0.388815326583391   0.875000000000000   1.0000000
B2   B   0.944400138750636   0.888866662869216   0.875000000000000   1.0000000
B2   B   0.111323024270108   0.889012087671517   0.375000000000000   1.0000000
B2   B   0.777756417469677   0.388819051105457   0.875000000000000   1.0000000
B2   B   0.444947988693311   0.889592199587108   0.375000000000000   1.0000000
B2   B   0.272670959787572   0.386276149199576   0.375000000000000   1.0000000
B2   B   0.277681474504905   0.555790922147364   0.375000000000000   1.0000000
B2   B   0.614301313041043   0.387132511752623   0.375000000000000   1.0000000
B2   B   0.778592055269831   0.889837808625522   0.375000000000000   1.0000000
B2   B   0.944230079896565   0.388797054854042   0.375000000000000   1.0000000
B2   B   0.111049720270976   0.555499710109773   0.875000000000000   1.0000000
B2   B   0.277692938473817   0.055473427722636   0.875000000000000   1.0000000
B2   B   0.777764835503154   0.555529416843424   0.875000000000000   1.0000000
B2   B   0.611069965413927   0.055491823482545   0.875000000000000   1.0000000
B2   B   0.944377487445580   0.055508583911397   0.875000000000000   1.0000000
B2   B   0.055395949855759   0.111019594254734   0.124092561869111   1.0000000
B2   B   0.555400896986709   0.611206243717338   0.123378907434751   1.0000000
B2   B   0.388692716980760   0.110892004670492   0.123623989650625   1.0000000
B2   B   0.888948068038694   0.611142530299542   0.123701408454971   1.0000000
B2   B   0.722096194027610   0.111024548180628   0.124141768372349   1.0000000
B2   B   0.055508341578453   0.777738269442095   0.625807552116323   1.0000000
B2   B   0.388731576903268   0.777755588939558   0.625855926827377   1.0000000
B2   B   0.221988645505304   0.277685393926039   0.626423263908259   1.0000000
B2   B   0.722152515805186   0.777820518391219   0.626279264524339   1.0000000
B2   B   0.555409308730373   0.277556796080525   0.626632956700997   1.0000000
B2   B   0.888779949483776   0.277718888970107   0.625851037999085   1.0000000
B2   B   0.222115005475016   0.777733850662635   0.124370402522023   1.0000000
B2   B   0.055389906219683   0.277712043985255   0.124033858597397   1.0000000
B2   B   0.388638158004345   0.277553933023974   0.123282298095431   1.0000000
B2   B   0.555402211956125   0.777806161320597   0.123820083163199   1.0000000
B2   B   0.888885164334839   0.777797170813246   0.123812258539548   1.0000000
B2   B   0.722152866142944   0.277680628841309   0.123712582074031   1.0000000
B2   B   0.055447273500498   0.944363037644680   0.625913528148600   1.0000000
B2   B   0.388731967607679   0.944330367497354   0.625942498668890   1.0000000
B2   B   0.222008438610577   0.444419708077922   0.626255876109549   1.0000000
B2   B   0.555455014309490   0.444409563802034   0.627167910388804   1.0000000
B2   B   0.722101891581915   0.944415817529560   0.625828046845672   1.0000000
B2   B   0.888878353938344   0.444424580138405   0.626195832065360   1.0000000
B2   B   0.055437344460398   0.444406924828281   0.124048091838463   1.0000000
B2   B   0.222076331632488   0.944327725700435   0.124094844800940   1.0000000
B2   B   0.555400439718878   0.944375533946857   0.124040533677196   1.0000000
B2   B   0.388622885491014   0.444448548076555   0.123352883392154   1.0000000
B2   B   0.888793911413160   0.944409438724348   0.124171235044414   1.0000000
B2   B   0.722287665036351   0.444437106964457   0.123345195502926   1.0000000
B2   B   0.222073868961305   0.611095637302420   0.625821367038013   1.0000000
B2   B   0.055395949855758   0.111019594254734   0.625907438130806   1.0000000
B2   B   0.555400896986709   0.611206243717338   0.626621092565490   1.0000000
B2   B   0.388692716980760   0.110892004670492   0.626376010349026   1.0000000
B2   B   0.888948068038694   0.611142530299542   0.626298591544996   1.0000000
B2   B   0.055505254333266   0.611092209756111   0.124202819848922   1.0000000
B2   B   0.722096194027610   0.111024548180628   0.625858231627821   1.0000000
B2   B   0.222022644507736   0.110951781461054   0.123743011036238   1.0000000
B2   B   0.388686347032817   0.611154095807827   0.123742034853305   1.0000000
B2   B   0.722290020052746   0.611197897025671   0.123329065953319   1.0000000
B2   B   0.555407506153059   0.110950865614767   0.123741004964875   1.0000000
B2   B   0.388686347032817   0.611154095807827   0.626257965146781   1.0000000
B2   B   0.888765107127385   0.111050664834257   0.124387156671912   1.0000000
B2   B   0.222115005475011   0.777733850662635   0.625629597478203   1.0000000
B2   B   0.055389906219683   0.277712043985255   0.625966141402819   1.0000000
B2   B   0.388638158004345   0.277553933023974   0.626717701904688   1.0000000
B2   B   0.555402211956128   0.777806161320597   0.626179916836970   1.0000000
B2   B   0.888885164334839   0.777797170813246   0.626187741460596   1.0000000
B2   B   0.722152866142944   0.277680628841309   0.626287417925731   1.0000000
B2   B   0.055508341578453   0.777738269442095   0.124192447884048   1.0000000
B2   B   0.388731576903268   0.777755588939545   0.124144073172353   1.0000000
B2   B   0.221988645505304   0.277685393926039   0.123576736092129   1.0000000
B2   B   0.722152515805186   0.777820518391219   0.123720735475877   1.0000000
B2   B   0.555409308730373   0.277556796080525   0.123367043298486   1.0000000
B2   B   0.888779949483776   0.277718888970107   0.124148962000712   1.0000000
B2   B   0.055437344460398   0.444406924828283   0.625951908161281   1.0000000
B2   B   0.222076331632488   0.944327725700435   0.625905155199383   1.0000000
B2   B   0.555400439718878   0.944375533946857   0.625959466322446   1.0000000
B2   B   0.388622885491014   0.444448548076555   0.626647116607833   1.0000000
B2   B   0.888793911413160   0.944409438724348   0.625828764955454   1.0000000
B2   B   0.055447273500498   0.944363037644680   0.124086471851364   1.0000000
B2   B   0.722287665036351   0.444437106964457   0.626654804497393   1.0000000
B2   B   0.388731967607679   0.944330367497354   0.124057501331335   1.0000000
B2   B   0.222008438610577   0.444419708077922   0.123744123890062   1.0000000
B2   B   0.222073868961305   0.611095637302420   0.124178632961643   1.0000000
B2   B   0.555455014309490   0.444409563802034   0.122832089611324   1.0000000
B2   B   0.722101891581915   0.944415817529560   0.124171953154298   1.0000000
B2   B   0.888878353938344   0.444424580138405   0.123804167934298   1.0000000
B2   B   0.055505254333269   0.611092209756111   0.625797180150980   1.0000000
B2   B   0.222022644507736   0.110951781461054   0.626256988963695   1.0000000
B2   B   0.722290020052745   0.611197897025681   0.626670934047006   1.0000000
B2   B   0.555407506153059   0.110950865614768   0.626258995035035   1.0000000
B2   B   0.888765107127385   0.111050664834257   0.625612843327766   1.0000000
B2   B   0.444377869892623   0.384672053656040   0.375000000000000   1.0000000


