data_1
_audit_creation_method   'vasp2cif'
_cell_length_a    14.93631414619966
_cell_length_b    14.936314146199727
_cell_length_c    13.341276283792837
_cell_angle_alpha    90.0
_cell_angle_beta    90.0
_cell_angle_gamma    119.99999999999984

_symmetry_space_group_name_H-M    'P 1'
loop_
_atom_site_label
_atom_site_type_symbol
_atom_site_fract_x
_atom_site_fract_y
_atom_site_fract_z
_atom_site_occupancy
C2   C   0.431984611501985   0.382658972417657   0.375000000000000   1.0000000
N2   N   0.111105678062413   0.055551011298259   0.125173929696174   1.0000000
N2   N   0.611138793203085   0.555545970321252   0.125423503648573   1.0000000
N2   N   0.444423506730295   0.055563957471457   0.125228869631597   1.0000000
N2   N   0.944469310571729   0.555568595007834   0.125150655411633   1.0000000
N2   N   0.777746407813890   0.055539870573613   0.125146772970633   1.0000000
N2   N   0.111117867998426   0.722225600665877   0.624875917472017   1.0000000
N2   N   0.444423506730295   0.722192882592174   0.624771130368403   1.0000000
N2   N   0.277789374975277   0.222232755782016   0.624524945224245   1.0000000
N2   N   0.777797507599703   0.722217496715817   0.624791068280201   1.0000000
N2   N   0.611095382606859   0.222248719268534   0.624695060327070   1.0000000
N2   N   0.944430041992409   0.222219672344419   0.624877898044981   1.0000000
N2   N   0.277767772553140   0.722214094060338   0.125128157124757   1.0000000
N2   N   0.111106247314646   0.222219790323987   0.125209517946345   1.0000000
N2   N   0.444443235412085   0.222257769516687   0.125561753967853   1.0000000
N2   N   0.611095382606859   0.722179996671653   0.125304939672929   1.0000000
N2   N   0.944469310571729   0.722234048897231   0.125150655411633   1.0000000
N2   N   0.777759293025549   0.222229980990724   0.125156663824982   1.0000000
N2   N   0.111114969163464   0.888891307522272   0.624863017226626   1.0000000
N2   N   0.444417907209909   0.888875620271619   0.624872898543663   1.0000000
N2   N   0.277789374975277   0.388889952526590   0.624524945224245   1.0000000
N2   N   0.611138793203085   0.388926156215163   0.624576496351426   1.0000000
N2   N   0.777759293025549   0.888862645368152   0.624843336175018   1.0000000
N2   N   0.944449269730528   0.388895348457478   0.624885439987960   1.0000000
N2   N   0.111105678062413   0.388888000097482   0.125173929696174   1.0000000
N2   N   0.277767772553140   0.888887011826131   0.125128157124757   1.0000000
N2   N   0.611075788919291   0.888857681990616   0.125159914883724   1.0000000
N2   N   0.444447224846659   0.388890279089994   0.125347700986436   1.0000000
N2   N   0.944449269730528   0.888887254606379   0.125114560012040   1.0000000
N2   N   0.777797507599703   0.388913344217215   0.125208931719798   1.0000000
N2   N   0.277774669486395   0.555545165278701   0.624730772345940   1.0000000
N2   N   0.111105678062413   0.055551011298259   0.624826070303826   1.0000000
N2   N   0.611138793203085   0.555545970321252   0.624576496351426   1.0000000
N2   N   0.444423506730295   0.055563957471457   0.624771130368403   1.0000000
N2   N   0.944469310571729   0.555568595007834   0.624849344588368   1.0000000
N2   N   0.111114969163464   0.555556994974520   0.125136982773374   1.0000000
N2   N   0.777746407813890   0.055539870573613   0.624853227029368   1.0000000
N2   N   0.277774669486395   0.055562837541029   0.125269227654060   1.0000000
N2   N   0.444443235412085   0.555518799228734   0.125561753967853   1.0000000
N2   N   0.777818701043361   0.555576017188349   0.125321546341720   1.0000000
N2   N   0.611075788919291   0.055551440262003   0.125159914883724   1.0000000
N2   N   0.444443235412085   0.555518799228734   0.624438246032147   1.0000000
N2   N   0.944430041992409   0.055543702981325   0.125122101955020   1.0000000
N2   N   0.277767772553140   0.722214094060338   0.624871842875244   1.0000000
N2   N   0.111106247314646   0.222219790323987   0.624790482053655   1.0000000
N2   N   0.444443235412085   0.222257769516687   0.624438246032147   1.0000000
N2   N   0.611095382606859   0.722179996671653   0.624695060327070   1.0000000
N2   N   0.944469310571729   0.722234048897231   0.624849344588368   1.0000000
N2   N   0.777759293025549   0.222229980990724   0.624843336175018   1.0000000
N2   N   0.111117867998426   0.722225600665877   0.125124082527982   1.0000000
N2   N   0.444423506730295   0.722192882592174   0.125228869631597   1.0000000
N2   N   0.277789374975277   0.222232755782016   0.125475054775755   1.0000000
N2   N   0.777797507599703   0.722217496715817   0.125208931719798   1.0000000
N2   N   0.611095382606859   0.222248719268534   0.125304939672929   1.0000000
N2   N   0.944430041992409   0.222219672344419   0.125122101955020   1.0000000
N2   N   0.111105678062413   0.388888000097482   0.624826070303826   1.0000000
N2   N   0.277767772553140   0.888887011826131   0.624871842875244   1.0000000
N2   N   0.611075788919291   0.888857681990616   0.624840085116276   1.0000000
N2   N   0.444447224846659   0.388890279089994   0.624652299013564   1.0000000
N2   N   0.944449269730528   0.888887254606379   0.624885439987960   1.0000000
N2   N   0.111114969163464   0.888891307522272   0.125136982773374   1.0000000
N2   N   0.777797507599703   0.388913344217215   0.624791068280201   1.0000000
N2   N   0.444417907209909   0.888875620271619   0.125127101456337   1.0000000
N2   N   0.277789374975277   0.388889952526590   0.125475054775755   1.0000000
N2   N   0.277774669486395   0.555545165278701   0.125269227654060   1.0000000
N2   N   0.611138793203085   0.388926156215163   0.125423503648573   1.0000000
N2   N   0.777759293025549   0.888862645368152   0.125156663824982   1.0000000
N2   N   0.944449269730528   0.388895348457478   0.125114560012040   1.0000000
N2   N   0.111114969163464   0.555556994974520   0.624863017226626   1.0000000
N2   N   0.277774669486395   0.055562837541029   0.624730772345940   1.0000000
N2   N   0.777818701043361   0.555576017188349   0.624678453658280   1.0000000
N2   N   0.611075788919291   0.055551440262003   0.624840085116276   1.0000000
N2   N   0.944430041992409   0.055543702981325   0.624877898044981   1.0000000
N2   N   0.053097627848224   0.109619490305949   0.375000000000000   1.0000000
N2   N   0.556521472405818   0.601790823717036   0.375000000000000   1.0000000
N2   N   0.390395768494662   0.116028916831477   0.375000000000000   1.0000000
N2   N   0.892734686374310   0.613034009853826   0.375000000000000   1.0000000
N2   N   0.721176362825487   0.111445185069661   0.375000000000000   1.0000000
N2   N   0.055550583004775   0.777777638984220   0.875000000000000   1.0000000
N2   N   0.388892086584775   0.777778645013247   0.875000000000000   1.0000000
N2   N   0.222219363833258   0.277776348583297   0.875000000000000   1.0000000
N2   N   0.722218027357614   0.777777933081075   0.875000000000000   1.0000000
N2   N   0.555550462717806   0.277774826649851   0.875000000000000   1.0000000
N2   N   0.888886107167553   0.277774497446890   0.875000000000000   1.0000000
N2   N   0.224563660945959   0.778948497139647   0.375000000000000   1.0000000
N2   N   0.053097627848224   0.276811470875610   0.375000000000000   1.0000000
N2   N   0.385452094100159   0.280958307264504   0.375000000000000   1.0000000
N2   N   0.555966623124033   0.774126956988841   0.375000000000000   1.0000000
N2   N   0.889938389122262   0.777751955490935   0.375000000000000   1.0000000
N2   N   0.721735612597862   0.279769710923741   0.375000000000000   1.0000000
N2   N   0.055550926903018   0.944445692600971   0.875000000000000   1.0000000
N2   N   0.388892086584775   0.944446774904864   0.875000000000000   1.0000000
N2   N   0.222219672894876   0.444439526853305   0.875000000000000   1.0000000
N2   N   0.555548836301649   0.444441084817489   0.875000000000000   1.0000000
N2   N   0.722218996821302   0.944444056069294   0.875000000000000   1.0000000
N2   N   0.888884830570410   0.444439320578059   0.875000000000000   1.0000000
N2   N   0.055532751129259   0.444474300051070   0.375000000000000   1.0000000
N2   N   0.224092476341387   0.946532226063259   0.375000000000000   1.0000000
N2   N   0.555855026435448   0.944594179884389   0.375000000000000   1.0000000
N2   N   0.385452094100159   0.437827120168989   0.375000000000000   1.0000000
N2   N   0.887520502192522   0.943026878789299   0.375000000000000   1.0000000
N2   N   0.724750660176232   0.447609687590000   0.375000000000000   1.0000000
N2   N   0.222220946510552   0.611106832810391   0.875000000000000   1.0000000
N2   N   0.055550702459567   0.111109972378748   0.875000000000000   1.0000000
N2   N   0.555550462717806   0.611108969401291   0.875000000000000   1.0000000
N2   N   0.388890558534669   0.111115069097403   0.875000000000000   1.0000000
N2   N   0.888881247527514   0.611107290430428   0.875000000000000   1.0000000
N2   N   0.058076819301830   0.612103486591393   0.375000000000000   1.0000000
N2   N   0.722218996821302   0.111108274085344   0.875000000000000   1.0000000
N2   N   0.220983690963740   0.111155427443266   0.375000000000000   1.0000000
N2   N   0.390395768494662   0.607700184996528   0.375000000000000   1.0000000
N2   N   0.724750660176232   0.610474305919566   0.375000000000000   1.0000000
N2   N   0.555966623124033   0.115172999468527   0.375000000000000   1.0000000
N2   N   0.388890558534669   0.611108822770609   0.875000000000000   1.0000000
N2   N   0.886912254004195   0.110122793668769   0.375000000000000   1.0000000
N2   N   0.222221646725185   0.777777490029260   0.875000000000000   1.0000000
N2   N   0.055550702459567   0.277774063414155   0.875000000000000   1.0000000
N2   N   0.388887486100276   0.277778086899137   0.875000000000000   1.0000000
N2   N   0.555554638588243   0.777778721366986   0.875000000000000   1.0000000
N2   N   0.888884830570410   0.777778843325687   0.875000000000000   1.0000000
N2   N   0.722218027357614   0.277773427609875   0.875000000000000   1.0000000
N2   N   0.058076819301830   0.779306666043772   0.375000000000000   1.0000000
N2   N   0.390507586365823   0.777226212301331   0.375000000000000   1.0000000
N2   N   0.217930887815287   0.275632110574312   0.375000000000000   1.0000000
N2   N   0.721735612597862   0.775299235007458   0.375000000000000   1.0000000
N2   N   0.556521472405818   0.288063982022118   0.375000000000000   1.0000000
N2   N   0.887520502192522   0.277826956736558   0.375000000000000   1.0000000
N2   N   0.055550926903018   0.444438567635375   0.875000000000000   1.0000000
N2   N   0.222220946510552   0.944447447033496   0.875000000000000   1.0000000
N2   N   0.555555049652404   0.944444191492866   0.875000000000000   1.0000000
N2   N   0.388887486100276   0.444442732534475   0.875000000000000   1.0000000
N2   N   0.888886107167553   0.944444943053997   0.875000000000000   1.0000000
N2   N   0.055532751129259   0.944391784411518   0.375000000000000   1.0000000
N2   N   0.722213744390725   0.444438871606014   0.875000000000000   1.0000000
N2   N   0.390507586365823   0.946614707397827   0.375000000000000   1.0000000
N2   N   0.220983690963740   0.443161596853811   0.375000000000000   1.0000000
N2   N   0.224092476341387   0.610893583611463   0.375000000000000   1.0000000
N2   N   0.721176362825487   0.943064511089162   0.375000000000000   1.0000000
N2   N   0.889938389122262   0.445519766964661   0.375000000000000   1.0000000
N2   N   0.055550583004775   0.611106277353890   0.875000000000000   1.0000000
N2   N   0.222219672894876   0.111113479374906   0.875000000000000   1.0000000
N2   N   0.722213744390725   0.611108206118046   0.875000000000000   1.0000000
N2   N   0.555554638588243   0.111109250554593   0.875000000000000   1.0000000
N2   N   0.888885617662966   0.111109475498155   0.875000000000000   1.0000000
B2   B   0.109257709289173   0.054738150668184   0.375000000000000   1.0000000
B2   B   0.615631847111233   0.547625979831599   0.375000000000000   1.0000000
B2   B   0.445310929495664   0.058347946778514   0.375000000000000   1.0000000
B2   B   0.947285787966057   0.556660626275663   0.375000000000000   1.0000000
B2   B   0.775950792765820   0.054642063049577   0.375000000000000   1.0000000
B2   B   0.111107164431289   0.722220248882309   0.875000000000000   1.0000000
B2   B   0.444453814907109   0.722251446092236   0.875000000000000   1.0000000
B2   B   0.277749824835171   0.222196422059375   0.875000000000000   1.0000000
B2   B   0.777790437427135   0.722244250184729   0.875000000000000   1.0000000
B2   B   0.611127216831328   0.222202838648717   0.875000000000000   1.0000000
B2   B   0.944418380427221   0.222207281424094   0.875000000000000   1.0000000
B2   B   0.279504063516776   0.722476892524574   0.375000000000000   1.0000000
B2   B   0.106427850157795   0.219880591745562   0.375000000000000   1.0000000
B2   B   0.446107306772509   0.226965157982499   0.375000000000000   1.0000000
B2   B   0.611144973310438   0.717022118820440   0.375000000000000   1.0000000
B2   B   0.947285787966057   0.723958495023729   0.375000000000000   1.0000000
B2   B   0.776490726965422   0.222650094096458   0.375000000000000   1.0000000
B2   B   0.111099004954467   0.888878156916196   0.875000000000000   1.0000000
B2   B   0.444453609006550   0.888893471169939   0.875000000000000   1.0000000
B2   B   0.277749824835171   0.388886736109124   0.875000000000000   1.0000000
B2   B   0.611132884514964   0.388882862542496   0.875000000000000   1.0000000
B2   B   0.777779119341209   0.888903990261414   0.875000000000000   1.0000000
B2   B   0.944433694450285   0.388878059098409   0.875000000000000   1.0000000
B2   B   0.109257709289173   0.387852891954317   0.375000000000000   1.0000000
B2   B   0.279504063516776   0.890360504325530   0.375000000000000   1.0000000
B2   B   0.610474095006164   0.886982506435980   0.375000000000000   1.0000000
B2   B   0.944309701804658   0.888625232744360   0.375000000000000   1.0000000
B2   B   0.779098525968743   0.390390336564583   0.375000000000000   1.0000000
B2   B   0.277765601627304   0.555570118341573   0.875000000000000   1.0000000
B2   B   0.111078576876590   0.055531840378392   0.875000000000000   1.0000000
B2   B   0.611132884514964   0.555583355305796   0.875000000000000   1.0000000
B2   B   0.444453814907109   0.055535702148209   0.875000000000000   1.0000000
B2   B   0.944446894692414   0.555553022864699   0.875000000000000   1.0000000
B2   B   0.112662486850896   0.555772379664947   0.375000000000000   1.0000000
B2   B   0.777771216403007   0.055552274868172   0.875000000000000   1.0000000
B2   B   0.278537147862465   0.057362349273023   0.375000000000000   1.0000000
B2   B   0.446107306772509   0.552475482123346   0.375000000000000   1.0000000
B2   B   0.783262474733443   0.558297904033389   0.375000000000000   1.0000000
B2   B   0.610474095006164   0.056824921903512   0.375000000000000   1.0000000
B2   B   0.444452646183305   0.555587367839814   0.875000000000000   1.0000000
B2   B   0.941895601533280   0.053976945306525   0.375000000000000   1.0000000
B2   B   0.277777558876602   0.722231446473629   0.875000000000000   1.0000000
B2   B   0.111065998250883   0.222199665792106   0.875000000000000   1.0000000
B2   B   0.444452646183305   0.222198611676827   0.875000000000000   1.0000000
B2   B   0.611127216831328   0.722257711515939   0.875000000000000   1.0000000
B2   B   0.944446894692414   0.722227205161052   0.875000000000000   1.0000000
B2   B   0.777779119341209   0.222208462413123   0.875000000000000   1.0000000
B2   B   0.113491588416448   0.723412460874887   0.375000000000000   1.0000000
B2   B   0.445310929495664   0.720296316050485   0.375000000000000   1.0000000
B2   B   0.271885970321440   0.220221671850365   0.375000000000000   1.0000000
B2   B   0.779098525968743   0.722041522737489   0.375000000000000   1.0000000
B2   B   0.611144973310438   0.227456187823326   0.375000000000000   1.0000000
B2   B   0.941895601533280   0.221251989560089   0.375000000000000   1.0000000
B2   B   0.111078576876590   0.388880069831527   0.875000000000000   1.0000000
B2   B   0.277777558876602   0.888879445736301   0.875000000000000   1.0000000
B2   B   0.611119731334600   0.888906688503884   0.875000000000000   1.0000000
B2   B   0.444449674417394   0.388891503875361   0.875000000000000   1.0000000
B2   B   0.944433694450285   0.888888968685205   0.875000000000000   1.0000000
B2   B   0.112662486850896   0.890223440519278   0.375000000000000   1.0000000
B2   B   0.777790437427135   0.388879520575734   0.875000000000000   1.0000000
B2   B   0.445181253670462   0.889257293501894   0.375000000000000   1.0000000
B2   B   0.271885970321440   0.384997631804404   0.375000000000000   1.0000000
B2   B   0.278537147862465   0.554508131922778   0.375000000000000   1.0000000
B2   B   0.615631847111233   0.401339200612962   0.375000000000000   1.0000000
B2   B   0.776490726965422   0.887173966202292   0.375000000000000   1.0000000
B2   B   0.944309701804658   0.389017802393626   0.375000000000000   1.0000000
B2   B   0.111099004954467   0.555554181371600   0.875000000000000   1.0000000
B2   B   0.277765601627304   0.055528816619067   0.875000000000000   1.0000000
B2   B   0.777792840445368   0.555563086889353   0.875000000000000   1.0000000
B2   B   0.611119731334600   0.055546376164044   0.875000000000000   1.0000000
B2   B   0.944418380427221   0.055544432336462   0.875000000000000   1.0000000
B2   B   0.055464392514125   0.111031817660037   0.124867495025779   1.0000000
B2   B   0.555639210400132   0.611186122293264   0.124990686026895   1.0000000
B2   B   0.388850415647535   0.110998436936653   0.124946503426665   1.0000000
B2   B   0.889001440074631   0.611167386703987   0.124929852490540   1.0000000
B2   B   0.722202081013516   0.111097085633199   0.124942767404642   1.0000000
B2   B   0.055578421368285   0.777768947240229   0.625075780123720   1.0000000
B2   B   0.388850665624407   0.777795612603634   0.625071537194214   1.0000000
B2   B   0.222093798680417   0.277713566006876   0.625198456436489   1.0000000
B2   B   0.722271654050612   0.777811419186548   0.625059311593606   1.0000000
B2   B   0.555639210400132   0.277786421440203   0.625009313973104   1.0000000
B2   B   0.888873447986544   0.277787042324666   0.625091169242412   1.0000000
B2   B   0.222198071574135   0.777765702453735   0.124920799113510   1.0000000
B2   B   0.055464392514125   0.277765908187423   0.124867495025779   1.0000000
B2   B   0.388882130574494   0.277735671148301   0.124596179923915   1.0000000
B2   B   0.555553607262942   0.777810993637778   0.124964030607021   1.0000000
B2   B   0.888949067713974   0.777799818357346   0.124915361049892   1.0000000
B2   B   0.722271654050612   0.277793568197399   0.124940688406395   1.0000000
B2   B   0.055519145610416   0.944375591906380   0.625102067397904   1.0000000
B2   B   0.388850665624407   0.944388386354108   0.625071537194214   1.0000000
B2   B   0.222122970484953   0.444487116202162   0.625116128626129   1.0000000
B2   B   0.555667855418711   0.444500594376020   0.625068261528262   1.0000000
B2   B   0.722202081013516   0.944438328713653   0.625057232595357   1.0000000
B2   B   0.888949067713974   0.444482582689963   0.625084638950108   1.0000000
B2   B   0.055519145610416   0.444476887037365   0.124897932602097   1.0000000
B2   B   0.222174597516861   0.944350019823303   0.124917607483574   1.0000000
B2   B   0.555525547742507   0.944429440537918   0.124941783831573   1.0000000
B2   B   0.388882130574494   0.444479792759530   0.124596179923915   1.0000000
B2   B   0.888873447986544   0.944419738995214   0.124908830757588   1.0000000
B2   B   0.722362728107122   0.444508021205697   0.124959164989297   1.0000000
B2   B   0.222174597516861   0.611157911026893   0.625082392516426   1.0000000
B2   B   0.055464392514125   0.111031817660037   0.625132504974220   1.0000000
B2   B   0.555639210400132   0.611186122293264   0.625009313973104   1.0000000
B2   B   0.388850415647535   0.110998436936653   0.625053496573335   1.0000000
B2   B   0.889001440074631   0.611167386703987   0.625070147509459   1.0000000
B2   B   0.055578421368285   0.611142807461391   0.124924219876281   1.0000000
B2   B   0.722202081013516   0.111097085633199   0.625057232595357   1.0000000
B2   B   0.222122970484953   0.110969187616127   0.124883871373871   1.0000000
B2   B   0.388850415647535   0.611185312044226   0.124946503426665   1.0000000
B2   B   0.722362728107122   0.611188040234759   0.124959164989297   1.0000000
B2   B   0.555553607262942   0.111075946958501   0.124964030607021   1.0000000
B2   B   0.388850415647535   0.611185312044226   0.625053496573335   1.0000000
B2   B   0.888838748299268   0.111086040816305   0.124914213784498   1.0000000
B2   B   0.222198071574135   0.777765702453735   0.625079200886490   1.0000000
B2   B   0.055464392514125   0.277765908187423   0.625132504974220   1.0000000
B2   B   0.388882130574494   0.277735671148301   0.625403820076085   1.0000000
B2   B   0.555553607262942   0.777810993637778   0.625035969392979   1.0000000
B2   B   0.888949067713974   0.777799818357346   0.625084638950108   1.0000000
B2   B   0.722271654050612   0.277793568197399   0.625059311593606   1.0000000
B2   B   0.055578421368285   0.777768947240229   0.124924219876281   1.0000000
B2   B   0.388850665624407   0.777795612603634   0.124928462805786   1.0000000
B2   B   0.222093798680417   0.277713566006876   0.124801543563512   1.0000000
B2   B   0.722271654050612   0.777811419186548   0.124940688406395   1.0000000
B2   B   0.555639210400132   0.277786421440203   0.124990686026895   1.0000000
B2   B   0.888873447986544   0.277787042324666   0.124908830757588   1.0000000
B2   B   0.055519145610416   0.444476887037365   0.625102067397904   1.0000000
B2   B   0.222174597516861   0.944350019823303   0.625082392516426   1.0000000
B2   B   0.555525547742507   0.944429440537918   0.625058216168426   1.0000000
B2   B   0.388882130574494   0.444479792759530   0.625403820076085   1.0000000
B2   B   0.888873447986544   0.944419738995214   0.625091169242412   1.0000000
B2   B   0.055519145610416   0.944375591906380   0.124897932602097   1.0000000
B2   B   0.722362728107122   0.444508021205697   0.625040835010703   1.0000000
B2   B   0.388850665624407   0.944388386354108   0.124928462805786   1.0000000
B2   B   0.222122970484953   0.444487116202162   0.124883871373871   1.0000000
B2   B   0.222174597516861   0.611157911026893   0.124917607483574   1.0000000
B2   B   0.555667855418711   0.444500594376020   0.124931738471738   1.0000000
B2   B   0.722202081013516   0.944438328713653   0.124942767404642   1.0000000
B2   B   0.888949067713974   0.444482582689963   0.124915361049892   1.0000000
B2   B   0.055578421368285   0.611142807461391   0.625075780123720   1.0000000
B2   B   0.222122970484953   0.110969187616127   0.625116128626129   1.0000000
B2   B   0.722362728107122   0.611188040234759   0.625040835010703   1.0000000
B2   B   0.555553607262942   0.111075946958501   0.625035969392979   1.0000000
B2   B   0.888838748299268   0.111086040816305   0.625085786215502   1.0000000


