data_1
_audit_creation_method   'vasp2cif'
_cell_length_a    14.93631414619966
_cell_length_b    14.936314146199727
_cell_length_c    13.341276283792837
_cell_angle_alpha    90.0
_cell_angle_beta    90.0
_cell_angle_gamma    119.99999999999984

_symmetry_space_group_name_H-M    'P 1'
loop_
_atom_site_label
_atom_site_type_symbol
_atom_site_fract_x
_atom_site_fract_y
_atom_site_fract_z
_atom_site_occupancy
Si2   Si   0.415535155075429   0.374434244204372   0.375000000000000   1.0000000
Si2   Si   0.570963961517989   0.452148647425660   0.375000000000000   1.0000000
N2   N   0.110979889474238   0.055463780301244   0.124799619734695   1.0000000
N2   N   0.611018091292195   0.555512106132368   0.130938319071972   1.0000000
N2   N   0.444304366289725   0.055489903819901   0.125165533183962   1.0000000
N2   N   0.944336167149157   0.555516509367230   0.125175738330640   1.0000000
N2   N   0.777656737008684   0.055495035171037   0.124591903248174   1.0000000
N2   N   0.110997880476748   0.722165606905051   0.625087712272492   1.0000000
N2   N   0.444304366289725   0.722147795803153   0.624834466816046   1.0000000
N2   N   0.277628759977747   0.222119489702694   0.622001021281304   1.0000000
N2   N   0.777668950951776   0.722145686511183   0.624215923998900   1.0000000
N2   N   0.610961979076808   0.222169740144662   0.623824891327611   1.0000000
N2   N   0.944335369760238   0.222184732741719   0.625507692744679   1.0000000
N2   N   0.277655014019310   0.722169947978893   0.124772735772494   1.0000000
N2   N   0.111008462903741   0.222170898118522   0.125058246743355   1.0000000
N2   N   0.444309392022714   0.222167581140540   0.128808415893464   1.0000000
N2   N   0.610961979076808   0.722125572265468   0.126175108672437   1.0000000
N2   N   0.944336167149157   0.722152991115316   0.125175738330640   1.0000000
N2   N   0.777646305388049   0.222185246182897   0.124760250432461   1.0000000
N2   N   0.110994242628233   0.888808524526274   0.625166215037502   1.0000000
N2   N   0.444310323963020   0.888821828648175   0.625443332051619   1.0000000
N2   N   0.277628759977747   0.388842603608368   0.622001021281304   1.0000000
N2   N   0.611018091292195   0.388839318493081   0.619061680927993   1.0000000
N2   N   0.777646305388049   0.888794392538415   0.625239749567537   1.0000000
N2   N   0.944330586699391   0.388856845388865   0.625368285693724   1.0000000
N2   N   0.110979889474238   0.388849442506326   0.124799619734695   1.0000000
N2   N   0.277655014019310   0.888818399373701   0.124772735772494   1.0000000
N2   N   0.610972816303246   0.888813114640336   0.124626254232333   1.0000000
N2   N   0.444090875801551   0.388712104567443   0.137833636970226   1.0000000
N2   N   0.944330586699391   0.888807074643894   0.124631714306290   1.0000000
N2   N   0.777668950951776   0.388856597773905   0.125784076001072   1.0000000
N2   N   0.277652881157566   0.555510394471086   0.624389588518268   1.0000000
N2   N   0.110979889474238   0.055463780301244   0.625200380265266   1.0000000
N2   N   0.611018091292195   0.555512106132368   0.619061680927993   1.0000000
N2   N   0.444304366289725   0.055489903819901   0.624834466816046   1.0000000
N2   N   0.944336167149157   0.555516509367230   0.624824261669368   1.0000000
N2   N   0.110994242628233   0.555519051435214   0.124833784962473   1.0000000
N2   N   0.777656737008684   0.055495035171037   0.625408096751820   1.0000000
N2   N   0.277652881157561   0.055475820019829   0.125610411481721   1.0000000
N2   N   0.444309392022714   0.555475144215521   0.128808415893463   1.0000000
N2   N   0.777655752421074   0.555494542877158   0.127091406000798   1.0000000
N2   N   0.610972816303246   0.055493034996216   0.124626254232333   1.0000000
N2   N   0.444309392022714   0.555475144215521   0.621191584106575   1.0000000
N2   N   0.944335369760238   0.055483970351813   0.124492307255284   1.0000000
N2   N   0.277655014019310   0.722169947978893   0.625227264227549   1.0000000
N2   N   0.111008462903741   0.222170898118522   0.624941753256619   1.0000000
N2   N   0.444309392022714   0.222167581140540   0.621191584106575   1.0000000
N2   N   0.610961979076808   0.722125572265468   0.623824891327611   1.0000000
N2   N   0.944336167149157   0.722152991115316   0.624824261669368   1.0000000
N2   N   0.777646305388049   0.222185246182897   0.625239749567537   1.0000000
N2   N   0.110997880476748   0.722165606905051   0.124912287727493   1.0000000
N2   N   0.444304366289725   0.722147795803153   0.125165533183962   1.0000000
N2   N   0.277628759977747   0.222119489702694   0.127998978718703   1.0000000
N2   N   0.777668950951776   0.722145686511183   0.125784076001072   1.0000000
N2   N   0.610961979076808   0.222169740144662   0.126175108672437   1.0000000
N2   N   0.944335369760238   0.222184732741719   0.124492307255284   1.0000000
N2   N   0.110979889474238   0.388849442506326   0.625200380265266   1.0000000
N2   N   0.277655014019310   0.888818399373701   0.625227264227549   1.0000000
N2   N   0.610972816303246   0.888813114640336   0.625373745767656   1.0000000
N2   N   0.444090875801551   0.388712104567443   0.612166363029761   1.0000000
N2   N   0.944330586699391   0.888807074643894   0.625368285693724   1.0000000
N2   N   0.110994242628233   0.888808524526274   0.124833784962473   1.0000000
N2   N   0.777668950951776   0.388856597773905   0.624215923998900   1.0000000
N2   N   0.444310323963020   0.888821828648175   0.124556667948347   1.0000000
N2   N   0.277628759977747   0.388842603608368   0.127998978718704   1.0000000
N2   N   0.277652881157561   0.555510394471086   0.125610411481721   1.0000000
N2   N   0.611018091292195   0.388839318493081   0.130938319071972   1.0000000
N2   N   0.777646305388049   0.888794392538415   0.124760250432461   1.0000000
N2   N   0.944330586699391   0.388856845388865   0.124631714306290   1.0000000
N2   N   0.110994242628233   0.555519051435214   0.625166215037502   1.0000000
N2   N   0.277652881157562   0.055475820019829   0.624389588518268   1.0000000
N2   N   0.777655752421074   0.555494542877158   0.622908593999199   1.0000000
N2   N   0.610972816303246   0.055493034996216   0.625373745767656   1.0000000
N2   N   0.944335369760238   0.055483970351813   0.625507692744679   1.0000000
N2   N   0.055650467697517   0.111094064042887   0.375000000000000   1.0000000
N2   N   0.556588346772348   0.623529498500562   0.375000000000000   1.0000000
N2   N   0.387457934523101   0.103898703664100   0.375000000000000   1.0000000
N2   N   0.890732850673317   0.612033092003371   0.375000000000000   1.0000000
N2   N   0.723721897896403   0.110528964067255   0.375000000000000   1.0000000
N2   N   0.055489093052915   0.777750220230856   0.875000000000000   1.0000000
N2   N   0.388846811947660   0.777749345899817   0.875000000000000   1.0000000
N2   N   0.222170616342634   0.277751974837958   0.875000000000000   1.0000000
N2   N   0.722163915114970   0.777751723875120   0.875000000000000   1.0000000
N2   N   0.555500984995786   0.277758670454736   0.875000000000000   1.0000000
N2   N   0.888831183639096   0.277743566583757   0.875000000000000   1.0000000
N2   N   0.221474342654600   0.777403837993969   0.375000000000000   1.0000000
N2   N   0.055650467697516   0.277889736987946   0.375000000000000   1.0000000
N2   N   0.376078408141200   0.254722875218139   0.375000000000000   1.0000000
N2   N   0.555978472803386   0.783461166579236   0.375000000000000   1.0000000
N2   N   0.893250792963749   0.781948812756704   0.375000000000000   1.0000000
N2   N   0.724923525842577   0.275468923273561   0.375000000000000   1.0000000
N2   N   0.055495447669578   0.944424626604818   0.875000000000000   1.0000000
N2   N   0.388846811947660   0.944430799381259   0.875000000000000   1.0000000
N2   N   0.222170270263932   0.444402224314041   0.875000000000000   1.0000000
N2   N   0.555481378529159   0.444407355931244   0.875000000000000   1.0000000
N2   N   0.722170131282992   0.944420258210594   0.875000000000000   1.0000000
N2   N   0.888822759668012   0.444404883979559   0.875000000000000   1.0000000
N2   N   0.055031827839639   0.445192804310001   0.375000000000000   1.0000000
N2   N   0.221034420941213   0.941661150821151   0.375000000000000   1.0000000
N2   N   0.555900203637945   0.944616768485608   0.375000000000000   1.0000000
N2   N   0.376078408141200   0.454688866256379   0.375000000000000   1.0000000
N2   N   0.890534036144470   0.946418019696858   0.375000000000000   1.0000000
N2   N   0.732199539590542   0.443222193998874   0.375000000000000   1.0000000
N2   N   0.222172819498405   0.611070355682190   0.875000000000000   1.0000000
N2   N   0.055495578672758   0.111086255006969   0.875000000000000   1.0000000
N2   N   0.555500984995786   0.611075647874337   0.875000000000000   1.0000000
N2   N   0.388848872778853   0.111111580320692   0.875000000000000   1.0000000
N2   N   0.888805473861955   0.611069403597616   0.875000000000000   1.0000000
N2   N   0.055777668608122   0.611630779074574   0.375000000000000   1.0000000
N2   N   0.722170131282992   0.111083206405707   0.875000000000000   1.0000000
N2   N   0.216256626271793   0.103066695298782   0.375000000000000   1.0000000
N2   N   0.387457934523101   0.616892564192320   0.375000000000000   1.0000000
N2   N   0.732199539590542   0.622310678924996   0.375000000000000   1.0000000
N2   N   0.555978472803386   0.105850639557462   0.375000000000000   1.0000000
N2   N   0.388848872778853   0.611070625791500   0.875000000000000   1.0000000
N2   N   0.890061911265709   0.111697622299491   0.375000000000000   1.0000000
N2   N   0.222170774092426   0.777752053712844   0.875000000000000   1.0000000
N2   N   0.055495578672758   0.277742656999135   0.875000000000000   1.0000000
N2   N   0.388843546867091   0.277772481782886   0.875000000000000   1.0000000
N2   N   0.555509073705433   0.777751383882963   0.875000000000000   1.0000000
N2   N   0.888822759668012   0.777751209021822   0.875000000000000   1.0000000
N2   N   0.722163915114970   0.277745524573146   0.875000000000000   1.0000000
N2   N   0.055777668608122   0.777480222866927   0.375000000000000   1.0000000
N2   N   0.388105221848494   0.779445352228315   0.375000000000000   1.0000000
N2   N   0.221810003106164   0.277571668219770   0.375000000000000   1.0000000
N2   N   0.724923525842577   0.782787935902314   0.375000000000000   1.0000000
N2   N   0.556588346772348   0.266392181605056   0.375000000000000   1.0000000
N2   N   0.890534036144470   0.277449349780881   0.375000000000000   1.0000000
N2   N   0.055495447669578   0.444404154398095   0.875000000000000   1.0000000
N2   N   0.222172819498405   0.944435797149598   0.875000000000000   1.0000000
N2   N   0.555509007232300   0.944421170282820   0.875000000000000   1.0000000
N2   N   0.388843546867091   0.444404398417538   0.875000000000000   1.0000000
N2   N   0.888831183639096   0.944420950388613   0.875000000000000   1.0000000
N2   N   0.055031827839639   0.943172356862978   0.375000000000000   1.0000000
N2   N   0.722145976218638   0.444403750140882   0.875000000000000   1.0000000
N2   N   0.388105221848494   0.941993202953586   0.375000000000000   1.0000000
N2   N   0.216256626271795   0.446523264306330   0.375000000000000   1.0000000
N2   N   0.221034420941213   0.612706603453416   0.375000000000000   1.0000000
N2   N   0.723721897896403   0.946526267162439   0.375000000000000   1.0000000
N2   N   0.893250792963749   0.444635313540382   0.375000000000000   1.0000000
N2   N   0.055489093052915   0.611072206155434   0.875000000000000   1.0000000
N2   N   0.222170270263932   0.111101379283220   0.875000000000000   1.0000000
N2   N   0.722145976218638   0.611075559411086   0.875000000000000   1.0000000
N2   N   0.555509073705433   0.111091023155747   0.875000000000000   1.0000000
N2   N   0.888832681901345   0.111083007617336   0.875000000000000   1.0000000
B2   B   0.107140800200620   0.051832036052565   0.375000000000000   1.0000000
B2   B   0.626218754929219   0.587244328874691   0.375000000000000   1.0000000
B2   B   0.444838753036544   0.050747160251082   0.375000000000000   1.0000000
B2   B   0.946104414675399   0.555676663684964   0.375000000000000   1.0000000
B2   B   0.779626575782924   0.056479954558144   0.375000000000000   1.0000000
B2   B   0.111063093255702   0.722198213294505   0.875000000000000   1.0000000
B2   B   0.444408287956152   0.722262553331799   0.875000000000000   1.0000000
B2   B   0.277611643069098   0.222114373264385   0.875000000000000   1.0000000
B2   B   0.777784277668582   0.722298705160915   0.875000000000000   1.0000000
B2   B   0.611106132445763   0.222121664692556   0.875000000000000   1.0000000
B2   B   0.944349091959841   0.222159295979866   0.875000000000000   1.0000000
B2   B   0.277240718097519   0.723296686765027   0.375000000000000   1.0000000
B2   B   0.109561566926733   0.221447450130038   0.375000000000000   1.0000000
B2   B   0.443859305647796   0.211308525451728   0.375000000000000   1.0000000
B2   B   0.613930276335922   0.733217512980057   0.375000000000000   1.0000000
B2   B   0.946104414675399   0.723761084323857   0.375000000000000   1.0000000
B2   B   0.780306386534273   0.220588559651798   0.375000000000000   1.0000000
B2   B   0.111041413490095   0.888857436816036   0.875000000000000   1.0000000
B2   B   0.444414808325251   0.888874070829305   0.875000000000000   1.0000000
B2   B   0.277611643069098   0.388830603138100   0.875000000000000   1.0000000
B2   B   0.611128050559799   0.388806902592711   0.875000000000000   1.0000000
B2   B   0.777750782259995   0.888934794969046   0.875000000000000   1.0000000
B2   B   0.944389840872175   0.388824876584815   0.875000000000000   1.0000000
B2   B   0.107140800200626   0.388642097481401   0.375000000000000   1.0000000
B2   B   0.277240718097519   0.887277364665907   0.375000000000000   1.0000000
B2   B   0.613004282496969   0.892709819760201   0.375000000000000   1.0000000
B2   B   0.946061187347036   0.891272485072289   0.375000000000000   1.0000000
B2   B   0.785374781130273   0.386590449253675   0.375000000000000   1.0000000
B2   B   0.277684542256154   0.555544415181238   0.875000000000000   1.0000000
B2   B   0.110983801825170   0.055490075733106   0.875000000000000   1.0000000
B2   B   0.611128050559799   0.555654481300470   0.875000000000000   1.0000000
B2   B   0.444408287956151   0.055479067957714   0.875000000000000   1.0000000
B2   B   0.944421646698089   0.555523407472016   0.875000000000000   1.0000000
B2   B   0.110450355214023   0.556087037107546   0.375000000000000   1.0000000
B2   B   0.777731421012083   0.055532377172707   0.875000000000000   1.0000000
B2   B   0.275502470622985   0.050581868069479   0.375000000000000   1.0000000
B2   B   0.443859305647796   0.565884113529415   0.375000000000000   1.0000000
B2   B   0.782147977177327   0.557740655255339   0.375000000000000   1.0000000
B2   B   0.613004282496969   0.053627796070119   0.375000000000000   1.0000000
B2   B   0.444382492242188   0.555603661219368   0.875000000000000   1.0000000
B2   B   0.945113854411142   0.056588149880298   0.375000000000000   1.0000000
B2   B   0.277725365135285   0.722209591547676   0.875000000000000   1.0000000
B2   B   0.110946481267177   0.222139907300267   0.875000000000000   1.0000000
B2   B   0.444382492242188   0.222112164356136   0.875000000000000   1.0000000
B2   B   0.611106132445763   0.722317801086523   0.875000000000000   1.0000000
B2   B   0.944421646698089   0.722231572559451   0.875000000000000   1.0000000
B2   B   0.777750782259995   0.222149320624229   0.875000000000000   1.0000000
B2   B   0.111088162181821   0.722210747757515   0.375000000000000   1.0000000
B2   B   0.444838753036544   0.727424926118779   0.375000000000000   1.0000000
B2   B   0.266665582849037   0.209839837909706   0.375000000000000   1.0000000
B2   B   0.785374781130273   0.732117665209909   0.375000000000000   1.0000000
B2   B   0.613930276335922   0.214046096689153   0.375000000000000   1.0000000
B2   B   0.945113854411142   0.221859037864136   0.375000000000000   1.0000000
B2   B   0.110983801825170   0.388827059425388   0.875000000000000   1.0000000
B2   B   0.277725365135285   0.888849106920878   0.875000000000000   1.0000000
B2   B   0.611092268837778   0.888918668861771   0.875000000000000   1.0000000
B2   B   0.444312694310616   0.388823013821981   0.875000000000000   1.0000000
B2   B   0.944389840872175   0.888898297620713   0.875000000000000   1.0000000
B2   B   0.110450355214022   0.887696651439871   0.375000000000000   1.0000000
B2   B   0.777784277668555   0.388818905840960   0.875000000000000   1.0000000
B2   B   0.444947566831758   0.889140450082539   0.375000000000000   1.0000000
B2   B   0.266665582849037   0.390159078272648   0.375000000000000   1.0000000
B2   B   0.275502470622985   0.558253935886843   0.375000000000000   1.0000000
B2   B   0.626218754929219   0.372307759387867   0.375000000000000   1.0000000
B2   B   0.780306386534273   0.893051160215818   0.375000000000000   1.0000000
B2   B   0.946061187347036   0.388122035608016   0.375000000000000   1.0000000
B2   B   0.111041413490095   0.555517310007422   0.875000000000000   1.0000000
B2   B   0.277684542256154   0.055473460408290   0.875000000000000   1.0000000
B2   B   0.777790945144193   0.555562139238781   0.875000000000000   1.0000000
B2   B   0.611092268837778   0.055506933309341   0.875000000000000   1.0000000
B2   B   0.944349091959841   0.055523129313277   0.875000000000000   1.0000000
B2   B   0.055289648390036   0.110910975862493   0.124329651637773   1.0000000
B2   B   0.555457936329993   0.611459623460943   0.127989036311867   1.0000000
B2   B   0.388586450342574   0.110615808427102   0.125716197319509   1.0000000
B2   B   0.889122883599078   0.611228108466193   0.125151204848637   1.0000000
B2   B   0.722110931718884   0.111002920590967   0.124339709005241   1.0000000
B2   B   0.055538941203243   0.777733839956605   0.625451153096610   1.0000000
B2   B   0.388694463287908   0.777795012215197   0.625628821208075   1.0000000
B2   B   0.221742630032055   0.277537981682672   0.623706637323949   1.0000000
B2   B   0.722226331093126   0.777924442998499   0.624935950918820   1.0000000
B2   B   0.555457936329993   0.277331646202307   0.622010963688122   1.0000000
B2   B   0.888791906401918   0.277725315016952   0.625735965996874   1.0000000
B2   B   0.222086700688177   0.777710017010704   0.124427635520668   1.0000000
B2   B   0.055289648390036   0.277712005860894   0.124329651637773   1.0000000
B2   B   0.388309783241062   0.276940408618793   0.130338519681748   1.0000000
B2   B   0.555410039260163   0.777901311354238   0.124818007399616   1.0000000
B2   B   0.888972118299339   0.777850127665688   0.124656090027324   1.0000000
B2   B   0.722226331093126   0.277635221427984   0.125064049081176   1.0000000
B2   B   0.055396004364025   0.944272008752071   0.625686974750020   1.0000000
B2   B   0.388694463287908   0.944232784406041   0.625628821208075   1.0000000
B2   B   0.221832209510278   0.444515574443239   0.624639611386964   1.0000000
B2   B   0.555810104820275   0.444571719076802   0.618133898832954   1.0000000
B2   B   0.722110931718884   0.944441344461249   0.625660290994754   1.0000000
B2   B   0.888972118299339   0.444455323967003   0.625343909972663   1.0000000
B2   B   0.055396004364024   0.444457328945290   0.124313025249999   1.0000000
B2   B   0.222012522060983   0.944167433435788   0.124585484624749   1.0000000
B2   B   0.555410033617723   0.944371683475522   0.124218117898561   1.0000000
B2   B   0.388309783241062   0.444702707955592   0.130338519681748   1.0000000
B2   B   0.888791906401918   0.944399924718269   0.124264034003144   1.0000000
B2   B   0.722606167594600   0.444516117513687   0.127017902782047   1.0000000
B2   B   0.222012522060983   0.611178421958542   0.625414515375240   1.0000000
B2   B   0.055289648390036   0.110910975862493   0.625670348362222   1.0000000
B2   B   0.555457936329993   0.611459623460943   0.622010963688122   1.0000000
B2   B   0.388586450342576   0.110615808427102   0.624283802680496   1.0000000
B2   B   0.889122883599078   0.611228108466193   0.624848795151312   1.0000000
B2   B   0.055538941203243   0.611138434579904   0.124548846903435   1.0000000
B2   B   0.722110931718884   0.111002920590967   0.625660290994754   1.0000000
B2   B   0.221832209510278   0.110649968400372   0.125360388612995   1.0000000
B2   B   0.388586450342574   0.611303975248796   0.125716197319509   1.0000000
B2   B   0.722606167594600   0.611423383414265   0.127017902782047   1.0000000
B2   B   0.555410039260163   0.110842061239296   0.124818007399616   1.0000000
B2   B   0.388586450342574   0.611303975248796   0.624283802680496   1.0000000
B2   B   0.888740043972717   0.111036688653025   0.124207259099852   1.0000000
B2   B   0.222086700688177   0.777710017010704   0.625572364479350   1.0000000
B2   B   0.055289648390036   0.277712005860894   0.625670348362222   1.0000000
B2   B   0.388309783241062   0.276940408618793   0.619661480318227   1.0000000
B2   B   0.555410039260163   0.777901311354238   0.625181992600412   1.0000000
B2   B   0.888972118299339   0.777850127665688   0.625343909972663   1.0000000
B2   B   0.722226331093126   0.277635221427984   0.624935950918820   1.0000000
B2   B   0.055538941203243   0.777733839956605   0.124548846903435   1.0000000
B2   B   0.388694463287908   0.777795012215197   0.124371178791934   1.0000000
B2   B   0.221742630032055   0.277537981682672   0.126293362676057   1.0000000
B2   B   0.722226331093126   0.777924442998499   0.125064049081176   1.0000000
B2   B   0.555457936329993   0.277331646202307   0.127989036311867   1.0000000
B2   B   0.888791906401918   0.277725315016952   0.124264034003144   1.0000000
B2   B   0.055396004364025   0.444457328945290   0.625686974750020   1.0000000
B2   B   0.222012522060982   0.944167433435788   0.625414515375240   1.0000000
B2   B   0.555410033617723   0.944371683475522   0.625781882101419   1.0000000
B2   B   0.388309783241062   0.444702707955592   0.619661480318227   1.0000000
B2   B   0.888791906401918   0.944399924718269   0.625735965996874   1.0000000
B2   B   0.055396004364025   0.944272008752071   0.124313025249999   1.0000000
B2   B   0.722606167594600   0.444516117513687   0.622982097217892   1.0000000
B2   B   0.388694463287908   0.944232784406041   0.124371178791934   1.0000000
B2   B   0.221832209510278   0.444515574443239   0.125360388612997   1.0000000
B2   B   0.222012522060983   0.611178421958542   0.124585484624749   1.0000000
B2   B   0.555810104820275   0.444571719076802   0.131866101167094   1.0000000
B2   B   0.722110931718884   0.944441344461249   0.124339709005241   1.0000000
B2   B   0.888972118299339   0.444455323967003   0.124656090027324   1.0000000
B2   B   0.055538941203243   0.611138434579904   0.625451153096610   1.0000000
B2   B   0.221832209510278   0.110649968400372   0.624639611386964   1.0000000
B2   B   0.722606167594600   0.611423383414265   0.622982097217892   1.0000000
B2   B   0.555410039260163   0.110842061239297   0.625181992600412   1.0000000
B2   B   0.888740043972717   0.111036688653025   0.625792740900139   1.0000000


