data_1
_audit_creation_method   'vasp2cif'
_cell_length_a    14.93631414619966
_cell_length_b    14.936314146199727
_cell_length_c    13.341276283792837
_cell_angle_alpha    90.0
_cell_angle_beta    90.0
_cell_angle_gamma    119.99999999999984

_symmetry_space_group_name_H-M    'P 1'
loop_
_atom_site_label
_atom_site_type_symbol
_atom_site_fract_x
_atom_site_fract_y
_atom_site_fract_z
_atom_site_occupancy
C2   C   0.622935696880466   0.396086880242465   0.375000000000000   1.0000000
O2   O   0.425909895698399   0.383106607995375   0.375000000000000   1.0000000
N2   N   0.582871018659933   0.451074170922917   0.375000000000000   1.0000000
N2   N   0.111081109872314   0.055544483739240   0.125031806802903   1.0000000
N2   N   0.611104332956200   0.555517847722364   0.125268064641416   1.0000000
N2   N   0.444437205227768   0.055562913836102   0.125084783267944   1.0000000
N2   N   0.944444562860007   0.555532591389746   0.125061436681103   1.0000000
N2   N   0.777731043304717   0.055510056818345   0.125016169567413   1.0000000
N2   N   0.111108492378616   0.722209045751956   0.624975845283781   1.0000000
N2   N   0.444422497969248   0.722181156519402   0.624971577565042   1.0000000
N2   N   0.277735155364005   0.222218386109779   0.624850122208418   1.0000000
N2   N   0.777763609036469   0.722192305778944   0.624982096747406   1.0000000
N2   N   0.611116109260072   0.222207881320716   0.624874718545787   1.0000000
N2   N   0.944390537335050   0.222174048107055   0.625003482914853   1.0000000
N2   N   0.277766317049819   0.722199850636167   0.125010451526951   1.0000000
N2   N   0.111033789111907   0.222171333738732   0.124944354267703   1.0000000
N2   N   0.444462625094789   0.222248388304971   0.125292145489928   1.0000000
N2   N   0.611089359953257   0.722179480080871   0.125063578067509   1.0000000
N2   N   0.944441418205063   0.722205280639635   0.125046055502720   1.0000000
N2   N   0.777757487743768   0.222182563430601   0.125047827053604   1.0000000
N2   N   0.111107407464303   0.888889333616726   0.624971620813015   1.0000000
N2   N   0.444423404553427   0.888871638198906   0.624976763744683   1.0000000
N2   N   0.277725043394458   0.388830030548074   0.624924205824479   1.0000000
N2   N   0.611130094396848   0.388861917262921   0.625038437355952   1.0000000
N2   N   0.777746701548800   0.888853998265138   0.624998426613443   1.0000000
N2   N   0.944428801282837   0.388857119695980   0.624950927130787   1.0000000
N2   N   0.111072985991784   0.388845722031403   0.125011957399528   1.0000000
N2   N   0.277774189223895   0.888889548339803   0.125022620967049   1.0000000
N2   N   0.611074398860162   0.888851182222956   0.125018750107143   1.0000000
N2   N   0.444414895815277   0.388864307616217   0.124923886328339   1.0000000
N2   N   0.944426847558302   0.888871411374791   0.125015892158148   1.0000000
N2   N   0.777778021667820   0.388857980320667   0.125098724296858   1.0000000
N2   N   0.277761128872714   0.555514898932971   0.624973429670259   1.0000000
N2   N   0.111081109872314   0.055544483739240   0.624968193197098   1.0000000
N2   N   0.611104332956200   0.555517847722364   0.624731935358583   1.0000000
N2   N   0.444437205227768   0.055562913836102   0.624915216732055   1.0000000
N2   N   0.944444562860007   0.555532591389746   0.624938563318897   1.0000000
N2   N   0.111100549480653   0.555528100679726   0.125022699458808   1.0000000
N2   N   0.777731043304717   0.055510056818345   0.624983830432587   1.0000000
N2   N   0.277777489792693   0.055573462849904   0.125079593860670   1.0000000
N2   N   0.444436712968677   0.555512380140320   0.125190792502465   1.0000000
N2   N   0.777774484342646   0.555523884193667   0.125126060388662   1.0000000
N2   N   0.611080398193271   0.055526418663047   0.125054572035992   1.0000000
N2   N   0.444436712968677   0.555512380140320   0.624809207497535   1.0000000
N2   N   0.944390895159938   0.055512515132888   0.124993157931156   1.0000000
N2   N   0.277766317049819   0.722199850636167   0.624989548473049   1.0000000
N2   N   0.111033789111907   0.222171333738732   0.625055645732298   1.0000000
N2   N   0.444462625094789   0.222248388304971   0.624707854510072   1.0000000
N2   N   0.611089359953257   0.722179480080871   0.624936421932491   1.0000000
N2   N   0.944441418205063   0.722205280639635   0.624953944497280   1.0000000
N2   N   0.777757487743768   0.222182563430601   0.624952172946396   1.0000000
N2   N   0.111108492378616   0.722209045751956   0.125024154716219   1.0000000
N2   N   0.444422497969248   0.722181156519402   0.125028422434959   1.0000000
N2   N   0.277735155364005   0.222218386109779   0.125149877791581   1.0000000
N2   N   0.777763609036469   0.722192305778944   0.125017903252592   1.0000000
N2   N   0.611116109260072   0.222207881320716   0.125125281454212   1.0000000
N2   N   0.944390537335050   0.222174048107055   0.124996517085146   1.0000000
N2   N   0.111072985991784   0.388845722031403   0.624988042600471   1.0000000
N2   N   0.277774189223895   0.888889548339803   0.624977379032951   1.0000000
N2   N   0.611074398860162   0.888851182222956   0.624981249892858   1.0000000
N2   N   0.444414895815277   0.388864307616217   0.625076113671660   1.0000000
N2   N   0.944426847558302   0.888871411374791   0.624984107841852   1.0000000
N2   N   0.111107407464303   0.888889333616726   0.125028379186984   1.0000000
N2   N   0.777778021667820   0.388857980320667   0.624901275703143   1.0000000
N2   N   0.444423404553427   0.888871638198906   0.125023236255317   1.0000000
N2   N   0.277725043394458   0.388830030548074   0.125075794175522   1.0000000
N2   N   0.277761128872714   0.555514898932971   0.125026570329739   1.0000000
N2   N   0.611130094396848   0.388861917262921   0.124961562644048   1.0000000
N2   N   0.777746701548800   0.888853998265138   0.125001573386557   1.0000000
N2   N   0.944428801282837   0.388857119695980   0.125049072869213   1.0000000
N2   N   0.111100549480653   0.555528100679726   0.624977300541192   1.0000000
N2   N   0.277777489792693   0.055573462849904   0.624920406139330   1.0000000
N2   N   0.777774484342646   0.555523884193667   0.624873939611338   1.0000000
N2   N   0.611080398193271   0.055526418663047   0.624945427964008   1.0000000
N2   N   0.944390895159938   0.055512515132888   0.625006842068845   1.0000000
N2   N   0.051947416616266   0.108757737718541   0.375000000000000   1.0000000
N2   N   0.555281556459938   0.604951119358531   0.375000000000000   1.0000000
N2   N   0.391132996225759   0.117842062489713   0.375000000000000   1.0000000
N2   N   0.893014381775444   0.612659215064215   0.375000000000000   1.0000000
N2   N   0.720958926535111   0.110154816526311   0.375000000000000   1.0000000
N2   N   0.055553477371825   0.777774579843510   0.875000000000000   1.0000000
N2   N   0.388886445429440   0.777777592412297   0.875000000000000   1.0000000
N2   N   0.222218585051580   0.277772830690422   0.875000000000000   1.0000000
N2   N   0.722221670650901   0.777774703416195   0.875000000000000   1.0000000
N2   N   0.555552657933008   0.277771983384320   0.875000000000000   1.0000000
N2   N   0.888888533131744   0.277777535037290   0.875000000000000   1.0000000
N2   N   0.224262080650075   0.779610559433301   0.375000000000000   1.0000000
N2   N   0.051782006123565   0.276231042721496   0.375000000000000   1.0000000
N2   N   0.378647493839460   0.275159235605766   0.375000000000000   1.0000000
N2   N   0.554883382285751   0.774852958005435   0.375000000000000   1.0000000
N2   N   0.891834903805471   0.779356423163641   0.375000000000000   1.0000000
N2   N   0.723365455055514   0.277898264329297   0.375000000000000   1.0000000
N2   N   0.055552842165720   0.944441381005420   0.875000000000000   1.0000000
N2   N   0.388886818039560   0.944441785873973   0.875000000000000   1.0000000
N2   N   0.222219715680785   0.444442360964136   0.875000000000000   1.0000000
N2   N   0.555554541841243   0.444443666865843   0.875000000000000   1.0000000
N2   N   0.722220971674363   0.944441662891450   0.875000000000000   1.0000000
N2   N   0.888889629578390   0.444443917920188   0.875000000000000   1.0000000
N2   N   0.054754474961303   0.444675940355718   0.375000000000000   1.0000000
N2   N   0.224246234625172   0.947026302976877   0.375000000000000   1.0000000
N2   N   0.555203554174053   0.944220485222529   0.375000000000000   1.0000000
N2   N   0.374595556517737   0.438981300173324   0.375000000000000   1.0000000
N2   N   0.887184168032026   0.942722677506901   0.375000000000000   1.0000000
N2   N   0.729184498672635   0.444580893437480   0.375000000000000   1.0000000
N2   N   0.222217081022516   0.611107583297719   0.875000000000000   1.0000000
N2   N   0.055552238051073   0.111103724778200   0.875000000000000   1.0000000
N2   N   0.555553865915792   0.611107546000411   0.875000000000000   1.0000000
N2   N   0.388885792932074   0.111104744086519   0.875000000000000   1.0000000
N2   N   0.888889485863353   0.611107800657020   0.875000000000000   1.0000000
N2   N   0.058003861861347   0.612611347124292   0.375000000000000   1.0000000
N2   N   0.722217584364763   0.111106543053814   0.875000000000000   1.0000000
N2   N   0.219402522093924   0.109766593936259   0.375000000000000   1.0000000
N2   N   0.388127837048136   0.608106297119960   0.375000000000000   1.0000000
N2   N   0.729947448712385   0.615338889479063   0.375000000000000   1.0000000
N2   N   0.556030355845372   0.113794184072737   0.375000000000000   1.0000000
N2   N   0.388888003011940   0.611109116753608   0.875000000000000   1.0000000
N2   N   0.886287613439908   0.109280216555032   0.375000000000000   1.0000000
N2   N   0.222218566590690   0.777774471785580   0.875000000000000   1.0000000
N2   N   0.055553159083834   0.277774991222643   0.875000000000000   1.0000000
N2   N   0.388886945439457   0.277773487701879   0.875000000000000   1.0000000
N2   N   0.555553981492599   0.777776712079230   0.875000000000000   1.0000000
N2   N   0.888889541426053   0.777776388642552   0.875000000000000   1.0000000
N2   N   0.722220449586020   0.277775090735758   0.875000000000000   1.0000000
N2   N   0.058241088277733   0.779579072241008   0.375000000000000   1.0000000
N2   N   0.389601369385860   0.777705025608215   0.375000000000000   1.0000000
N2   N   0.214835214594397   0.274436699573814   0.375000000000000   1.0000000
N2   N   0.721611161018666   0.775773610053233   0.375000000000000   1.0000000
N2   N   0.561346533710749   0.286163486012555   0.375000000000000   1.0000000
N2   N   0.887725429514222   0.277070949965653   0.375000000000000   1.0000000
N2   N   0.055552248319844   0.444443435650573   0.875000000000000   1.0000000
N2   N   0.222218655916267   0.944440010089833   0.875000000000000   1.0000000
N2   N   0.555550970790080   0.944442719924354   0.875000000000000   1.0000000
N2   N   0.388888394898392   0.444444164372412   0.875000000000000   1.0000000
N2   N   0.888890112974615   0.944441367187194   0.875000000000000   1.0000000
N2   N   0.055633824072019   0.944464209891812   0.375000000000000   1.0000000
N2   N   0.722222199487339   0.444442559263204   0.875000000000000   1.0000000
N2   N   0.390239770218942   0.947310741192922   0.375000000000000   1.0000000
N2   N   0.217201553065578   0.443701822206682   0.375000000000000   1.0000000
N2   N   0.222896529321442   0.611711951257543   0.375000000000000   1.0000000
N2   N   0.720540734741353   0.942511271132783   0.375000000000000   1.0000000
N2   N   0.891749329537372   0.445368781026128   0.375000000000000   1.0000000
N2   N   0.055552304132035   0.611106626991527   0.875000000000000   1.0000000
N2   N   0.222217626406098   0.111104967402628   0.875000000000000   1.0000000
N2   N   0.722220143539516   0.611107007431469   0.875000000000000   1.0000000
N2   N   0.555550244199805   0.111104510642894   0.875000000000000   1.0000000
N2   N   0.888888665459515   0.111106481519462   0.875000000000000   1.0000000
B2   B   0.108849873456899   0.054545226572416   0.375000000000000   1.0000000
B2   B   0.619899556340487   0.556290642814686   0.375000000000000   1.0000000
B2   B   0.445058046840756   0.059423657363275   0.375000000000000   1.0000000
B2   B   0.947606706639309   0.556707954286332   0.375000000000000   1.0000000
B2   B   0.775580561908210   0.053615766627979   0.375000000000000   1.0000000
B2   B   0.111110172841425   0.722220537669045   0.875000000000000   1.0000000
B2   B   0.444441635500923   0.722207961383534   0.875000000000000   1.0000000
B2   B   0.277791478925454   0.222234939571483   0.875000000000000   1.0000000
B2   B   0.777764976075077   0.722208958295955   0.875000000000000   1.0000000
B2   B   0.611096590913734   0.222224540939049   0.875000000000000   1.0000000
B2   B   0.944452829906487   0.222220555030394   0.875000000000000   1.0000000
B2   B   0.278776919373505   0.722929729817426   0.375000000000000   1.0000000
B2   B   0.105410708880664   0.219298706477585   0.375000000000000   1.0000000
B2   B   0.446264000151774   0.231362360823659   0.375000000000000   1.0000000
B2   B   0.609731199534573   0.717556726121476   0.375000000000000   1.0000000
B2   B   0.947482520463498   0.723913850990776   0.375000000000000   1.0000000
B2   B   0.777156216200923   0.221038357799397   0.375000000000000   1.0000000
B2   B   0.111109481559464   0.888890212593400   0.875000000000000   1.0000000
B2   B   0.444438208178922   0.888880590386801   0.875000000000000   1.0000000
B2   B   0.277796580832317   0.388892076991241   0.875000000000000   1.0000000
B2   B   0.611087598838755   0.388895335761310   0.875000000000000   1.0000000
B2   B   0.777773519229409   0.888876402286416   0.875000000000000   1.0000000
B2   B   0.944449033051066   0.388889655572611   0.875000000000000   1.0000000
B2   B   0.107447398556917   0.387547589894011   0.375000000000000   1.0000000
B2   B   0.279339041135375   0.890995706303326   0.375000000000000   1.0000000
B2   B   0.609661491317607   0.886706111821861   0.375000000000000   1.0000000
B2   B   0.945065098130469   0.889433541945578   0.375000000000000   1.0000000
B2   B   0.782245301156802   0.388211457086182   0.375000000000000   1.0000000
B2   B   0.277786571346046   0.555548935673911   0.875000000000000   1.0000000
B2   B   0.111116321569238   0.055559022986725   0.875000000000000   1.0000000
B2   B   0.611089161922211   0.555535624560942   0.875000000000000   1.0000000
B2   B   0.444434443724595   0.055555137582700   0.875000000000000   1.0000000
B2   B   0.944443053821140   0.555556739703440   0.875000000000000   1.0000000
B2   B   0.112085234729255   0.556038599511442   0.375000000000000   1.0000000
B2   B   0.777777525359790   0.055547381615313   0.875000000000000   1.0000000
B2   B   0.278976531216558   0.058502498973993   0.375000000000000   1.0000000
B2   B   0.442543043981996   0.549963098768842   0.375000000000000   1.0000000
B2   B   0.782950003645848   0.557760247048368   0.375000000000000   1.0000000
B2   B   0.610185162431540   0.055820437774420   0.375000000000000   1.0000000
B2   B   0.444444147618202   0.555539563999270   0.875000000000000   1.0000000
B2   B   0.941431152825118   0.053405011883192   0.375000000000000   1.0000000
B2   B   0.277777754736191   0.722215315037021   0.875000000000000   1.0000000
B2   B   0.111125332801585   0.222225346172073   0.875000000000000   1.0000000
B2   B   0.444436149989532   0.222233808659248   0.875000000000000   1.0000000
B2   B   0.611098856649957   0.722199504223859   0.875000000000000   1.0000000
B2   B   0.944439134342533   0.722220687222870   0.875000000000000   1.0000000
B2   B   0.777775351345891   0.222220148692578   0.875000000000000   1.0000000
B2   B   0.113472444617458   0.723855712460558   0.375000000000000   1.0000000
B2   B   0.443858264234245   0.719938086822812   0.375000000000000   1.0000000
B2   B   0.270085114717605   0.219338366269028   0.375000000000000   1.0000000
B2   B   0.781650736346707   0.724746901209466   0.375000000000000   1.0000000
B2   B   0.612670412130787   0.225163614965004   0.375000000000000   1.0000000
B2   B   0.941584059764166   0.220372215407939   0.375000000000000   1.0000000
B2   B   0.111123931601082   0.388889420253865   0.875000000000000   1.0000000
B2   B   0.277774503575339   0.888887245287082   0.875000000000000   1.0000000
B2   B   0.611103858102841   0.888874372935068   0.875000000000000   1.0000000
B2   B   0.444447413383376   0.388895142491115   0.875000000000000   1.0000000
B2   B   0.944442579527700   0.888885388055234   0.875000000000000   1.0000000
B2   B   0.112953359732423   0.890658930246900   0.375000000000000   1.0000000
B2   B   0.777768973540046   0.388892288497205   0.875000000000000   1.0000000
B2   B   0.444488436408674   0.889524957839091   0.375000000000000   1.0000000
B2   B   0.267376407297015   0.384722209374809   0.375000000000000   1.0000000
B2   B   0.276790243118821   0.554679422561614   0.375000000000000   1.0000000
B2   B   0.776019721383462   0.886797320078001   0.375000000000000   1.0000000
B2   B   0.944750742842252   0.388370543047481   0.375000000000000   1.0000000
B2   B   0.111116213414225   0.555553669045060   0.875000000000000   1.0000000
B2   B   0.277776553954484   0.055561143119197   0.875000000000000   1.0000000
B2   B   0.777762623399662   0.555552567166199   0.875000000000000   1.0000000
B2   B   0.611102172237047   0.055548324735048   0.875000000000000   1.0000000
B2   B   0.944449876011283   0.055551300396555   0.875000000000000   1.0000000
B2   B   0.055513236464490   0.111093890129337   0.124974856611452   1.0000000
B2   B   0.555517666420397   0.611001604017382   0.125277147720936   1.0000000
B2   B   0.388904520313797   0.111184380065198   0.125108801455950   1.0000000
B2   B   0.888866125115454   0.611089935717396   0.124999887979115   1.0000000
B2   B   0.722190855305324   0.111061178402092   0.124992873585819   1.0000000
B2   B   0.055556506457076   0.777776513261392   0.625005604585174   1.0000000
B2   B   0.388886916840980   0.777733759586315   0.624997610963301   1.0000000
B2   B   0.222205301826939   0.277775219031611   0.624982070657244   1.0000000
B2   B   0.722167913786190   0.777717934374759   0.624985384723287   1.0000000
B2   B   0.555553533749624   0.277847932303724   0.624953154211316   1.0000000
B2   B   0.888874033909378   0.277735974028657   0.625012471565526   1.0000000
B2   B   0.222233372336244   0.777768546247097   0.124995372520574   1.0000000
B2   B   0.055523186180501   0.277735664190030   0.124967647380985   1.0000000
B2   B   0.388928651683804   0.277921017046106   0.125365310039890   1.0000000
B2   B   0.555530185287542   0.777704628841706   0.125024818574589   1.0000000
B2   B   0.888850356976090   0.777751114235943   0.124985210153836   1.0000000
B2   B   0.722205898578103   0.277740559264224   0.124973575470266   1.0000000
B2   B   0.055540820152204   0.944447583197936   0.625004339135088   1.0000000
B2   B   0.388886093467335   0.944442914264052   0.624995305481740   1.0000000
B2   B   0.222235910463400   0.444391023536548   0.624971339607764   1.0000000
B2   B   0.555422184512960   0.444356234624857   0.624329709828271   1.0000000
B2   B   0.722179347183573   0.944387409435133   0.625005366192546   1.0000000
B2   B   0.888892018142502   0.444421552824657   0.625017663165333   1.0000000
B2   B   0.055563752069417   0.444414159793410   0.124987427200198   1.0000000
B2   B   0.222231326931890   0.944470977212271   0.125003317248423   1.0000000
B2   B   0.555528952643904   0.944398302238302   0.125001060465797   1.0000000
B2   B   0.388926640817828   0.444356041082718   0.125359663796143   1.0000000
B2   B   0.888846853649337   0.944410286015944   0.124985657151508   1.0000000
B2   B   0.722125755193689   0.444395442250286   0.124893722826138   1.0000000
B2   B   0.222240690087973   0.611072133072194   0.625005412372962   1.0000000
B2   B   0.055513236464490   0.111093890129337   0.625025143388548   1.0000000
B2   B   0.555517666420397   0.611001604017382   0.624722852279064   1.0000000
B2   B   0.388904520313797   0.111184380065198   0.624891198544050   1.0000000
B2   B   0.888866125115454   0.611089935717396   0.625000112020885   1.0000000
B2   B   0.055570955649065   0.611097586612841   0.124990501863546   1.0000000
B2   B   0.722190855305324   0.111061178402092   0.625007126414182   1.0000000
B2   B   0.222225863321358   0.111165474105753   0.125041841630866   1.0000000
B2   B   0.388903595638811   0.611026669812622   0.125094481873554   1.0000000
B2   B   0.722118279031050   0.611040761240166   0.125110888647502   1.0000000
B2   B   0.555539553281967   0.111099448737094   0.125012078381833   1.0000000
B2   B   0.388903595638811   0.611026669812622   0.624905518126446   1.0000000
B2   B   0.888846870816009   0.111065035761116   0.124982453301230   1.0000000
B2   B   0.222233372336244   0.777768546247097   0.625004627479426   1.0000000
B2   B   0.055523186180501   0.277735664190030   0.625032352619016   1.0000000
B2   B   0.388928651683804   0.277921017046106   0.624634689960110   1.0000000
B2   B   0.555530185287542   0.777704628841706   0.624975181425411   1.0000000
B2   B   0.888850356976090   0.777751114235943   0.625014789846164   1.0000000
B2   B   0.722205898578103   0.277740559264224   0.625026424529734   1.0000000
B2   B   0.055556506457076   0.777776513261392   0.124994395414826   1.0000000
B2   B   0.388886916840980   0.777733759586315   0.125002389036699   1.0000000
B2   B   0.222205301826939   0.277775219031611   0.125017929342756   1.0000000
B2   B   0.722167913786190   0.777717934374759   0.125014615276712   1.0000000
B2   B   0.555553533749624   0.277847932303724   0.125046845788685   1.0000000
B2   B   0.888874033909378   0.277735974028657   0.124987528434474   1.0000000
B2   B   0.055563752069417   0.444414159793410   0.625012572799801   1.0000000
B2   B   0.222231326931890   0.944470977212271   0.624996682751577   1.0000000
B2   B   0.555528952643904   0.944398302238302   0.624998939534204   1.0000000
B2   B   0.388926640817828   0.444356041082718   0.624640336203856   1.0000000
B2   B   0.888846853649337   0.944410286015944   0.625014342848492   1.0000000
B2   B   0.055540820152204   0.944447583197936   0.124995660864911   1.0000000
B2   B   0.722125755193689   0.444395442250286   0.625106277173862   1.0000000
B2   B   0.388886093467335   0.944442914264052   0.125004694518260   1.0000000
B2   B   0.222235910463400   0.444391023536548   0.125028660392236   1.0000000
B2   B   0.222240690087973   0.611072133072194   0.124994587627038   1.0000000
B2   B   0.555422184512960   0.444356234624857   0.125670290171730   1.0000000
B2   B   0.722179347183573   0.944387409435133   0.124994633807453   1.0000000
B2   B   0.888892018142502   0.444421552824657   0.124982336834667   1.0000000
B2   B   0.055570955649065   0.611097586612841   0.625009498136454   1.0000000
B2   B   0.222225863321358   0.111165474105753   0.624958158369134   1.0000000
B2   B   0.722118279031050   0.611040761240166   0.624889111352498   1.0000000
B2   B   0.555539553281967   0.111099448737094   0.624987921618167   1.0000000
B2   B   0.888846870816009   0.111065035761116   0.625017546698770   1.0000000


