data_1
_audit_creation_method   'vasp2cif'
_cell_length_a    17.52789999999977
_cell_length_b    17.52789999999977
_cell_length_c    15.0
_cell_angle_alpha    90.0
_cell_angle_beta    90.0
_cell_angle_gamma    119.99999999999916

_symmetry_space_group_name_H-M    'P 1'
loop_
_atom_site_label
_atom_site_type_symbol
_atom_site_fract_x
_atom_site_fract_y
_atom_site_fract_z
_atom_site_occupancy
B2   B   0.905791348046886   0.954116875110541   0.111040501868681   1.0000000
B2   B   0.905030163186062   0.095772224136978   0.111060766011228   1.0000000
B2   B   0.905080176747097   0.237834031586785   0.111053695317776   1.0000000
B2   B   0.906114404095078   0.380488662856127   0.111037403637520   1.0000000
B2   B   0.910339180168813   0.524448850379570   0.111060690028297   1.0000000
B2   B   0.910079023439367   0.671152826267930   0.111023975914264   1.0000000
B2   B   0.908028422593047   0.813153085130610   0.111024363401901   1.0000000
B2   B   0.048244550933610   0.953000082871748   0.111033171650738   1.0000000
B2   B   0.047261147939789   0.095215596290858   0.111046851006372   1.0000000
B2   B   0.047040245518641   0.237834031586785   0.111053695317776   1.0000000
B2   B   0.047526915016580   0.380769150910183   0.111038194410309   1.0000000
B2   B   0.049280167684411   0.524175435130444   0.111044199885519   1.0000000
B2   B   0.049392891147291   0.667547277919376   0.111043855799623   1.0000000
B2   B   0.049652325028282   0.811008521947254   0.111031708694474   1.0000000
B2   B   0.190014089632245   0.951289766394788   0.111035983836575   1.0000000
B2   B   0.188564951276300   0.093068876186777   0.111048093481962   1.0000000
B2   B   0.188496737575749   0.236706337844266   0.111037336753713   1.0000000
B2   B   0.188660649439981   0.380488662856127   0.111037403637515   1.0000000
B2   B   0.189179946568073   0.524175435130444   0.111044199885519   1.0000000
B2   B   0.190666416979684   0.667048154837324   0.111042642972963   1.0000000
B2   B   0.190771558352371   0.809401890279569   0.111007027534626   1.0000000
B2   B   0.332510478843489   0.950736278562979   0.111023836287104   1.0000000
B2   B   0.330535503533411   0.091095433520637   0.111039307484091   1.0000000
B2   B   0.328120401653270   0.232382600306503   0.111033087764745   1.0000000
B2   B   0.329492375780104   0.379183226629614   0.111087535096848   1.0000000
B2   B   0.328396060889821   0.524448850379570   0.111060690028297   1.0000000
B2   B   0.332439065895194   0.667547277919376   0.111043855799623   1.0000000
B2   B   0.332915011050191   0.809401890279569   0.111007027534626   1.0000000
B2   B   0.475560355885504   0.951289766394788   0.111035983836575   1.0000000
B2   B   0.474846320667202   0.091095433520637   0.111039307484091   1.0000000
B2   B   0.470894856646675   0.227503322613387   0.111008255930516   1.0000000
B2   B   0.466217806130374   0.362372453922075   0.111105774362885   1.0000000
B2   B   0.465451991692805   0.532547636699199   0.111052129360568   1.0000000
B2   B   0.475360193507508   0.671152826267930   0.111023975914264   1.0000000
B2   B   0.475640876042016   0.811008521947254   0.111031708694474   1.0000000
B2   B   0.619040211061170   0.953000082871748   0.111033171650738   1.0000000
B2   B   0.618790315589474   0.093068876186777   0.111048093481962   1.0000000
B2   B   0.618548589333271   0.232382600306503   0.111033087764745   1.0000000
B2   B   0.610441038471623   0.362372453922071   0.111105774362885   1.0000000
B2   B   0.628400831709695   0.542515272740400   0.110737968059001   1.0000000
B2   B   0.620885149016478   0.674553200605641   0.110979485603172   1.0000000
B2   B   0.619411053216516   0.813153085130610   0.111024363401901   1.0000000
B2   B   0.762611917742692   0.954116875110541   0.111040501868681   1.0000000
B2   B   0.762240839030063   0.095215596290858   0.111046851006372   1.0000000
B2   B   0.762495990947464   0.236706337844262   0.111037336753713   1.0000000
B2   B   0.763977241529591   0.379183226629614   0.111087535096848   1.0000000
B2   B   0.781382035685595   0.532547636699199   0.111052129360568   1.0000000
B2   B   0.767954442268114   0.674553200605641   0.110979485603172   1.0000000
B2   B   0.763904610875491   0.813522831071931   0.111022755671070   1.0000000
N2   N   0.953970903162322   0.907176364714508   0.111012971730254   1.0000000
N2   N   0.952695434029544   0.048592667796061   0.111033317344397   1.0000000
N2   N   0.952393565787306   0.190497937044696   0.111050951383751   1.0000000
N2   N   0.952805271505571   0.332771907710796   0.111021075960495   1.0000000
N2   N   0.955257582081685   0.475733299673866   0.111020726640910   1.0000000
N2   N   0.955057114535967   0.620268229264086   0.111027601981324   1.0000000
N2   N   0.955617621263466   0.765299096774395   0.111005009097832   1.0000000
N2   N   0.095735585042202   0.905313317490340   0.111013688611687   1.0000000
N2   N   0.094422635506845   0.047305891808408   0.111025095929057   1.0000000
N2   N   0.094127778632611   0.190008152078295   0.111033818500503   1.0000000
N2   N   0.094254119179293   0.332771907710796   0.111021075960495   1.0000000
N2   N   0.095083989512547   0.475882207607118   0.111019483492224   1.0000000
N2   N   0.096076537741322   0.619294094283600   0.111033822780176   1.0000000
N2   N   0.096237141212703   0.762485915116600   0.111008527881533   1.0000000
N2   N   0.237710256581911   0.903961440673815   0.110994061268780   1.0000000
N2   N   0.236150713196099   0.045453515478847   0.111036700514170   1.0000000
N2   N   0.234470294395964   0.187447886464668   0.111012928720244   1.0000000
N2   N   0.235395406344341   0.331971033793498   0.111025878105164   1.0000000
N2   N   0.234763200566189   0.475733299673866   0.111020726640910   1.0000000
N2   N   0.237503327959310   0.619294094283600   0.111033822780176   1.0000000
N2   N   0.238086395512555   0.761887019608039   0.110987323300922   1.0000000
N2   N   0.380536955508891   0.903961440673815   0.110994061268780   1.0000000
N2   N   0.379622238986560   0.044956995000053   0.111030648540242   1.0000000
N2   N   0.376377451010286   0.184735202430918   0.110994972579456   1.0000000
N2   N   0.373599036824315   0.326800708366725   0.111069727249008   1.0000000
N2   N   0.372985474207075   0.475498042449099   0.111090746698538   1.0000000
N2   N   0.379498597701048   0.620268229264086   0.111027601981324   1.0000000
N2   N   0.380534545320798   0.762485915116600   0.111008527881533   1.0000000
N2   N   0.523863503865172   0.905313317490340   0.111013688611687   1.0000000
N2   N   0.523590285255760   0.045453515478847   0.111036700514170   1.0000000
N2   N   0.522645234393601   0.184735202430918   0.110994972579456   1.0000000
N2   N   0.516945266196027   0.319603049418842   0.111026927225808   1.0000000
N2   N   0.523820350761614   0.625911284789233   0.110980353309876   1.0000000
N2   N   0.523968958483881   0.765299096774395   0.111005009097832   1.0000000
N2   N   0.667492944525174   0.907176364714508   0.111012971730254   1.0000000
N2   N   0.667170739274482   0.047305891808408   0.111025095929057   1.0000000
N2   N   0.667265075041746   0.187447886464668   0.111012928720244   1.0000000
N2   N   0.667489154515471   0.326800708366683   0.111069727249008   1.0000000
N2   N   0.674220635738203   0.634153788504515   0.110905817939586   1.0000000
N2   N   0.668434107888644   0.767965036754532   0.110995516351506   1.0000000
N2   N   0.810980617191218   0.907673751408475   0.111024605097804   1.0000000
N2   N   0.810186428296433   0.048592667796060   0.111033317344397   1.0000000
N2   N   0.810167856419729   0.190008152078295   0.111033818500503   1.0000000
N2   N   0.810863110423202   0.331971033793498   0.111025878105164   1.0000000
N2   N   0.816800051216112   0.475498042449099   0.111090746698538   1.0000000
N2   N   0.816378417000561   0.625911284789233   0.110980353309876   1.0000000
N2   N   0.813818411838913   0.767965036754532   0.110995516351506   1.0000000
S2   S   0.519078898335325   0.475045185621428   0.110687192099430   1.0000000
S2   S   0.670253770259142   0.475045185621428   0.110687192099430   1.0000000


