data_1
_audit_creation_method   'vasp2cif'
_cell_length_a    17.52789999999977
_cell_length_b    17.52789999999977
_cell_length_c    15.0
_cell_angle_alpha    90.0
_cell_angle_beta    90.0
_cell_angle_gamma    119.99999999999916

_symmetry_space_group_name_H-M    'P 1'
loop_
_atom_site_label
_atom_site_type_symbol
_atom_site_fract_x
_atom_site_fract_y
_atom_site_fract_z
_atom_site_occupancy
B2   B   0.905401625795331   0.952868521025483   0.110998855911809   1.0000000
B2   B   0.904736685097655   0.095134932662125   0.111051972249966   1.0000000
B2   B   0.904573410470480   0.237831740044355   0.111045059739206   1.0000000
B2   B   0.904775614202492   0.380733519123598   0.110986585067312   1.0000000
B2   B   0.905483140402470   0.523849164205617   0.111005691844336   1.0000000
B2   B   0.905935535769280   0.667100876111936   0.111087882810639   1.0000000
B2   B   0.906041815895779   0.810323459657889   0.111046484269630   1.0000000
B2   B   0.047775649626932   0.952338013282784   0.110984569695109   1.0000000
B2   B   0.047177926128696   0.094624059285494   0.110991901816024   1.0000000
B2   B   0.046893253398133   0.237446329698397   0.110990376263674   1.0000000
B2   B   0.046906530991894   0.380729420798295   0.111004634840683   1.0000000
B2   B   0.047198663523912   0.524015200307266   0.111011354067337   1.0000000
B2   B   0.047752827069568   0.667024541848388   0.111025182644289   1.0000000
B2   B   0.047933051304264   0.809770690379545   0.110981269218539   1.0000000
B2   B   0.190158231822610   0.952135386395001   0.110974702605487   1.0000000
B2   B   0.189813601940590   0.094296313591202   0.111040889970360   1.0000000
B2   B   0.188829140888982   0.236172887730563   0.111001107638477   1.0000000
B2   B   0.188749268865305   0.380050249383714   0.111015695131482   1.0000000
B2   B   0.188715550401026   0.524213905310821   0.111075785885370   1.0000000
B2   B   0.189766532241280   0.667288965230052   0.111094030711217   1.0000000
B2   B   0.190200160290749   0.809885649745589   0.111005030906541   1.0000000
B2   B   0.332876526793566   0.952359602557924   0.111014631254220   1.0000000
B2   B   0.332575867996281   0.094119029316157   0.111062259065239   1.0000000
B2   B   0.332095969814457   0.235823695748058   0.111071932575212   1.0000000
B2   B   0.329564614390021   0.375752649633042   0.111062711837537   1.0000000
B2   B   0.329229433431762   0.525144752906164   0.111060050387435   1.0000000
B2   B   0.331819443075804   0.667965914898352   0.111116644891424   1.0000000
B2   B   0.332639701944757   0.810277977659870   0.111090261351210   1.0000000
B2   B   0.475769342946384   0.952807127179994   0.111001527212125   1.0000000
B2   B   0.475780143018463   0.094393909381816   0.111000498119491   1.0000000
B2   B   0.475316538465134   0.235342510170998   0.111071667970508   1.0000000
B2   B   0.475918084366416   0.376331258449820   0.111120478583055   1.0000000
B2   B   0.474248027362991   0.670554435901608   0.111042494479920   1.0000000
B2   B   0.475439062106416   0.811201361224576   0.111055015480456   1.0000000
B2   B   0.618959146516396   0.953331759898783   0.111011622712763   1.0000000
B2   B   0.618932048243259   0.095036345355205   0.110999016986424   1.0000000
B2   B   0.619008902838538   0.236689621154108   0.110999350043000   1.0000000
B2   B   0.618213785518388   0.377688512271579   0.111007076865595   1.0000000
B2   B   0.622945966423728   0.672728024602971   0.110995829896675   1.0000000
B2   B   0.619544004198032   0.812212543628988   0.110999329160880   1.0000000
B2   B   0.762409496338984   0.953214928903699   0.111003846250277   1.0000000
B2   B   0.761952450299377   0.095318850770971   0.111065678842952   1.0000000
B2   B   0.762030900932397   0.237737947435849   0.111051920823215   1.0000000
B2   B   0.762374223692959   0.380284042824304   0.110990494262329   1.0000000
B2   B   0.764111672594990   0.524565189131924   0.111023490029547   1.0000000
B2   B   0.765368715754106   0.667893027294500   0.111056267906563   1.0000000
B2   B   0.763821497721968   0.811670061465680   0.111002422952886   1.0000000
P2   P   0.479237575198497   0.521352906778708   0.111018849250940   1.0000000
N2   N   0.952774165289798   0.905161394631863   0.110991592978910   1.0000000
N2   N   0.952406167374800   0.047671267440764   0.111000513645967   1.0000000
N2   N   0.952216034372379   0.190256044980638   0.111022841359174   1.0000000
N2   N   0.952303695396369   0.333058089998529   0.110990857205651   1.0000000
N2   N   0.952569947178596   0.475992030038965   0.110956739060401   1.0000000
N2   N   0.952890192854979   0.619152696973762   0.111020665330540   1.0000000
N2   N   0.952901682682183   0.762217704016367   0.111030842829151   1.0000000
N2   N   0.095234855721168   0.904805831470096   0.110939795148408   1.0000000
N2   N   0.095013698468624   0.047420350512972   0.110991801189770   1.0000000
N2   N   0.094537303196422   0.189869401592972   0.110960427642456   1.0000000
N2   N   0.094687165799949   0.333002993030030   0.110973045138616   1.0000000
N2   N   0.094579080768943   0.476103523252158   0.111010306762652   1.0000000
N2   N   0.095098045776642   0.619198100183523   0.111028832813216   1.0000000
N2   N   0.095314114407814   0.762114219474844   0.110976504403606   1.0000000
N2   N   0.237882701006528   0.904837682474834   0.110967495406473   1.0000000
N2   N   0.237649397685997   0.047232318346494   0.111018342473873   1.0000000
N2   N   0.237384669284023   0.189764410759966   0.111028265666151   1.0000000
N2   N   0.236458531871782   0.332020239974879   0.111000390016462   1.0000000
N2   N   0.236367100472793   0.476026267870596   0.111048665672670   1.0000000
N2   N   0.237369236796210   0.619325959128035   0.111103050723982   1.0000000
N2   N   0.237783695555263   0.762225547163946   0.111065816909673   1.0000000
N2   N   0.380646472217907   0.904990617330588   0.111022699391512   1.0000000
N2   N   0.380592564384021   0.047251271965268   0.111002147085584   1.0000000
N2   N   0.380162027136924   0.189295744250534   0.111068223967277   1.0000000
N2   N   0.380200928370439   0.332022881351830   0.111072512510360   1.0000000
N2   N   0.375330115537370   0.473937310114922   0.111017565755315   1.0000000
N2   N   0.379898730037379   0.619658366491330   0.111064684990823   1.0000000
N2   N   0.380389039147919   0.762493225452664   0.111091879636625   1.0000000
N2   N   0.523573326429915   0.905405329146637   0.111002173582655   1.0000000
N2   N   0.523668881495348   0.047411155075246   0.110950357599365   1.0000000
N2   N   0.523541144992976   0.189144754313336   0.110997091103930   1.0000000
N2   N   0.522741545543438   0.330089471529629   0.111077104989390   1.0000000
N2   N   0.528597830995072   0.472023243284557   0.111158231845774   1.0000000
N2   N   0.525611851717959   0.624568949640674   0.111000228565016   1.0000000
N2   N   0.523447016059948   0.763536806851035   0.111010582279176   1.0000000
N2   N   0.666817584677348   0.906019793564140   0.110976772453579   1.0000000
N2   N   0.666690052132566   0.047779150630978   0.111015124076664   1.0000000
N2   N   0.666810950866702   0.189797212173111   0.111005786523006   1.0000000
N2   N   0.667016063182545   0.331373377155197   0.110981815975638   1.0000000
N2   N   0.672225645313636   0.469277581022191   0.110817538533796   1.0000000
N2   N   0.672875206811309   0.631776885105718   0.110909898636445   1.0000000
N2   N   0.668102586982036   0.765945966484083   0.110968184689472   1.0000000
N2   N   0.810291451031899   0.905929304868474   0.110973400203687   1.0000000
N2   N   0.809637108778885   0.047835646368329   0.111040654867535   1.0000000
N2   N   0.809605452183424   0.190238496702826   0.111056332866081   1.0000000
N2   N   0.809849562398131   0.332809971638807   0.110997600187609   1.0000000
N2   N   0.810678704413971   0.475620761208256   0.110989675090548   1.0000000
N2   N   0.810850232730317   0.619476830368910   0.111090853194410   1.0000000
N2   N   0.810760350903914   0.763475067708737   0.111035500863553   1.0000000


