data_1
_audit_creation_method   'vasp2cif'
_cell_length_a    14.93631414619966
_cell_length_b    14.936314146199727
_cell_length_c    13.341276283792837
_cell_angle_alpha    90.0
_cell_angle_beta    90.0
_cell_angle_gamma    119.99999999999984

_symmetry_space_group_name_H-M    'P 1'
loop_
_atom_site_label
_atom_site_type_symbol
_atom_site_fract_x
_atom_site_fract_y
_atom_site_fract_z
_atom_site_occupancy
C2   C   0.555555555555557   0.444444444444443   0.375000000000000   1.0000000
N2   N   0.111109070515680   0.055553401964324   0.124996407382179   1.0000000
N2   N   0.611113919604760   0.555561172542850   0.124955510601733   1.0000000
N2   N   0.444444503981256   0.055557412378049   0.125008898683553   1.0000000
N2   N   0.944442587621951   0.555555496018744   0.125008898683553   1.0000000
N2   N   0.777777432180571   0.055555382756954   0.124996156278826   1.0000000
N2   N   0.111109968619999   0.722221650976664   0.624998210901931   1.0000000
N2   N   0.444444503981256   0.722220424936543   0.624991101316447   1.0000000
N2   N   0.277775565423665   0.222219442647864   0.625007076796252   1.0000000
N2   N   0.777780557352136   0.722224434576336   0.625007076796252   1.0000000
N2   N   0.611110543890870   0.222219442647864   0.625007076796252   1.0000000
N2   N   0.944444617243047   0.222222567819429   0.625003843721174   1.0000000
N2   N   0.277778349023336   0.722221650976664   0.125001789098069   1.0000000
N2   N   0.111109853786298   0.222221593559813   0.124997606161243   1.0000000
N2   N   0.444448389375015   0.222230112083365   0.125048387602781   1.0000000
N2   N   0.611110543890870   0.722224434576336   0.124992923203748   1.0000000
N2   N   0.944442587621951   0.722220424936543   0.125008898683553   1.0000000
N2   N   0.777778406440187   0.222221593559813   0.124997606161243   1.0000000
N2   N   0.111110844866941   0.888889155133059   0.624995430999985   1.0000000
N2   N   0.444444976932790   0.888889155133059   0.624995430999985   1.0000000
N2   N   0.277775565423665   0.388889456109130   0.625007076796252   1.0000000
N2   N   0.611113919604760   0.388886080395239   0.625044489398267   1.0000000
N2   N   0.777778406440187   0.888890146213702   0.625002393838757   1.0000000
N2   N   0.944446598035676   0.388889001884684   0.625003592617821   1.0000000
N2   N   0.111109070515680   0.388889001884684   0.124996407382179   1.0000000
N2   N   0.277778349023336   0.888890031380001   0.125001789098069   1.0000000
N2   N   0.611110998115316   0.888890929484319   0.124996407382179   1.0000000
N2   N   0.444438827457150   0.388886080395239   0.124955510601733   1.0000000
N2   N   0.944446598035676   0.888890929484319   0.124996407382179   1.0000000
N2   N   0.777780557352136   0.388889456109130   0.124992923203748   1.0000000
N2   N   0.277779575063457   0.555555496018744   0.624991101316447   1.0000000
N2   N   0.111109070515680   0.055553401964324   0.625003592617821   1.0000000
N2   N   0.611113919604760   0.555561172542850   0.625044489398267   1.0000000
N2   N   0.444444503981256   0.055557412378049   0.624991101316447   1.0000000
N2   N   0.944442587621951   0.555555496018744   0.624991101316447   1.0000000
N2   N   0.111110844866941   0.555555023067210   0.125004569000015   1.0000000
N2   N   0.777777432180571   0.055555382756954   0.625003843721174   1.0000000
N2   N   0.277779575063457   0.055557412378049   0.125008898683553   1.0000000
N2   N   0.444448389375015   0.555551610624985   0.125048387602781   1.0000000
N2   N   0.777769887916635   0.555551610624985   0.125048387602781   1.0000000
N2   N   0.611110998115316   0.055553401964324   0.124996407382179   1.0000000
N2   N   0.444448389375015   0.555551610624985   0.624951612397219   1.0000000
N2   N   0.944444617243047   0.055555382756954   0.124996156278826   1.0000000
N2   N   0.277778349023336   0.722221650976664   0.624998210901931   1.0000000
N2   N   0.111109853786298   0.222221593559813   0.625002393838757   1.0000000
N2   N   0.444448389375015   0.222230112083365   0.624951612397219   1.0000000
N2   N   0.611110543890870   0.722224434576336   0.625007076796252   1.0000000
N2   N   0.944442587621951   0.722220424936543   0.624991101316447   1.0000000
N2   N   0.777778406440187   0.222221593559813   0.625002393838757   1.0000000
N2   N   0.111109968619999   0.722221650976664   0.125001789098069   1.0000000
N2   N   0.444444503981256   0.722220424936543   0.125008898683553   1.0000000
N2   N   0.277775565423665   0.222219442647864   0.124992923203748   1.0000000
N2   N   0.777780557352136   0.722224434576336   0.124992923203748   1.0000000
N2   N   0.611110543890870   0.222219442647864   0.124992923203748   1.0000000
N2   N   0.944444617243047   0.222222567819429   0.124996156278826   1.0000000
N2   N   0.111109070515680   0.388889001884684   0.625003592617821   1.0000000
N2   N   0.277778349023336   0.888890031380001   0.624998210901931   1.0000000
N2   N   0.611110998115316   0.888890929484319   0.625003592617821   1.0000000
N2   N   0.444438827457150   0.388886080395239   0.625044489398267   1.0000000
N2   N   0.944446598035676   0.888890929484319   0.625003592617821   1.0000000
N2   N   0.111110844866941   0.888889155133059   0.125004569000015   1.0000000
N2   N   0.777780557352136   0.388889456109130   0.625007076796252   1.0000000
N2   N   0.444444976932790   0.888889155133059   0.125004569000015   1.0000000
N2   N   0.277775565423665   0.388889456109130   0.124992923203748   1.0000000
N2   N   0.277779575063457   0.555555496018744   0.125008898683553   1.0000000
N2   N   0.611113919604760   0.388886080395239   0.124955510601733   1.0000000
N2   N   0.777778406440187   0.888890146213702   0.124997606161243   1.0000000
N2   N   0.944446598035676   0.388889001884684   0.124996407382179   1.0000000
N2   N   0.111110844866941   0.555555023067210   0.624995430999985   1.0000000
N2   N   0.277779575063457   0.055557412378049   0.624991101316447   1.0000000
N2   N   0.777769887916635   0.555551610624985   0.624951612397219   1.0000000
N2   N   0.611110998115316   0.055553401964324   0.625003592617821   1.0000000
N2   N   0.944444617243047   0.055555382756954   0.625003843721174   1.0000000
N2   N   0.055255360331975   0.110914503644374   0.375000000000000   1.0000000
N2   N   0.556030615477461   0.613572485106444   0.375000000000000   1.0000000
N2   N   0.388775214001700   0.110883761336743   0.375000000000000   1.0000000
N2   N   0.889116238663257   0.611224785998300   0.375000000000000   1.0000000
N2   N   0.722325809979063   0.110914503644374   0.375000000000000   1.0000000
N2   N   0.055555060233519   0.777778519844522   0.875000000000000   1.0000000
N2   N   0.388890126277668   0.777778519844522   0.875000000000000   1.0000000
N2   N   0.222222268980320   0.277777801156828   0.875000000000000   1.0000000
N2   N   0.722222198843172   0.777777731019680   0.875000000000000   1.0000000
N2   N   0.555555069738402   0.277778517404406   0.875000000000000   1.0000000
N2   N   0.888890067720663   0.277778644328897   0.875000000000000   1.0000000
N2   N   0.222222222222221   0.777777777777779   0.375000000000000   1.0000000
N2   N   0.055255360331975   0.277674190020937   0.375000000000000   1.0000000
N2   N   0.386427514893556   0.275791463704353   0.375000000000000   1.0000000
N2   N   0.555527300594747   0.778725467795732   0.375000000000000   1.0000000
N2   N   0.889864833867649   0.778725467795732   0.375000000000000   1.0000000
N2   N   0.722714136280961   0.277285863719039   0.375000000000000   1.0000000
N2   N   0.055555620260190   0.944444379739810   0.875000000000000   1.0000000
N2   N   0.388890126277668   0.944444939766481   0.875000000000000   1.0000000
N2   N   0.222221187791714   0.444444689031634   0.875000000000000   1.0000000
N2   N   0.555555555555557   0.444444444444443   0.875000000000000   1.0000000
N2   N   0.722221355671103   0.944444756725101   0.875000000000000   1.0000000
N2   N   0.888890167906584   0.444444689031634   0.875000000000000   1.0000000
N2   N   0.055600924260798   0.444535181854924   0.375000000000000   1.0000000
N2   N   0.222184196840715   0.944289775116321   0.375000000000000   1.0000000
N2   N   0.555464818145075   0.944399075739202   0.375000000000000   1.0000000
N2   N   0.386427514893556   0.443969384522539   0.375000000000000   1.0000000
N2   N   0.889085496355626   0.944744639668025   0.375000000000000   1.0000000
N2   N   0.724208536295648   0.443969384522539   0.375000000000000   1.0000000
N2   N   0.222221480155478   0.611109873722332   0.875000000000000   1.0000000
N2   N   0.055555243274899   0.111109932279338   0.875000000000000   1.0000000
N2   N   0.555555069738402   0.611109885667332   0.875000000000000   1.0000000
N2   N   0.388889363310114   0.111112059953570   0.875000000000000   1.0000000
N2   N   0.888887940046430   0.611110636689886   0.875000000000000   1.0000000
N2   N   0.055710224883679   0.611227755057730   0.375000000000000   1.0000000
N2   N   0.722221355671103   0.111109932279338   0.875000000000000   1.0000000
N2   N   0.221274532204269   0.110135166132351   0.375000000000000   1.0000000
N2   N   0.388775214001700   0.611224785998300   0.375000000000000   1.0000000
N2   N   0.724208536295648   0.613572485106444   0.375000000000000   1.0000000
N2   N   0.555527300594747   0.110135166132351   0.375000000000000   1.0000000
N2   N   0.388889363310114   0.611110636689886   0.875000000000000   1.0000000
N2   N   0.888888888888886   0.111111111111114   0.375000000000000   1.0000000
N2   N   0.222222222222221   0.777777777777779   0.875000000000000   1.0000000
N2   N   0.055555243274899   0.277778644328897   0.875000000000000   1.0000000
N2   N   0.388890114332668   0.277778517404406   0.875000000000000   1.0000000
N2   N   0.555555310968366   0.777778812208286   0.875000000000000   1.0000000
N2   N   0.888890167906584   0.777778812208286   0.875000000000000   1.0000000
N2   N   0.722222198843172   0.277777801156828   0.875000000000000   1.0000000
N2   N   0.055710224883679   0.777815803159285   0.375000000000000   1.0000000
N2   N   0.388772244942270   0.777815803159285   0.375000000000000   1.0000000
N2   N   0.221238394104743   0.277285863719039   0.375000000000000   1.0000000
N2   N   0.722714136280961   0.778761605895257   0.375000000000000   1.0000000
N2   N   0.556030615477461   0.275791463704353   0.375000000000000   1.0000000
N2   N   0.889085496355626   0.277674190020937   0.375000000000000   1.0000000
N2   N   0.055555620260190   0.444444573853709   0.875000000000000   1.0000000
N2   N   0.222221480155478   0.944444939766481   0.875000000000000   1.0000000
N2   N   0.555555426146291   0.944444379739810   0.875000000000000   1.0000000
N2   N   0.388890114332668   0.444444930261597   0.875000000000000   1.0000000
N2   N   0.888890067720663   0.944444756725101   0.875000000000000   1.0000000
N2   N   0.055600924260798   0.944399075739202   0.375000000000000   1.0000000
N2   N   0.722221482595594   0.444444930261597   0.875000000000000   1.0000000
N2   N   0.388772244942270   0.944289775116321   0.375000000000000   1.0000000
N2   N   0.221274532204269   0.444472699405253   0.375000000000000   1.0000000
N2   N   0.222184196840715   0.611227755057730   0.375000000000000   1.0000000
N2   N   0.722325809979063   0.944744639668025   0.375000000000000   1.0000000
N2   N   0.889864833867649   0.444472699405253   0.375000000000000   1.0000000
N2   N   0.055555060233519   0.611109873722332   0.875000000000000   1.0000000
N2   N   0.222221187791714   0.111109832093416   0.875000000000000   1.0000000
N2   N   0.722221482595594   0.611109885667332   0.875000000000000   1.0000000
N2   N   0.555555310968366   0.111109832093416   0.875000000000000   1.0000000
N2   N   0.888888888888886   0.111111111111114   0.875000000000000   1.0000000
B2   B   0.110587122609588   0.055157946337032   0.375000000000000   1.0000000
B2   B   0.613739507718390   0.560812348770109   0.375000000000000   1.0000000
B2   B   0.444410365905008   0.055276701780657   0.375000000000000   1.0000000
B2   B   0.944723298219343   0.555589634094992   0.375000000000000   1.0000000
B2   B   0.777909759362610   0.055621546347972   0.375000000000000   1.0000000
B2   B   0.111109836205682   0.722221584769505   0.875000000000000   1.0000000
B2   B   0.444445939567690   0.722222644921235   0.875000000000000   1.0000000
B2   B   0.277777589172139   0.222222225897910   0.875000000000000   1.0000000
B2   B   0.777777774102090   0.722222410827861   0.875000000000000   1.0000000
B2   B   0.611111303392442   0.222222225897910   0.875000000000000   1.0000000
B2   B   0.944444478961073   0.222222291255483   0.875000000000000   1.0000000
B2   B   0.277732330120237   0.722267669879763   0.375000000000000   1.0000000
B2   B   0.110459439189838   0.221896386261584   0.375000000000000   1.0000000
B2   B   0.444302325157599   0.221937983648534   0.375000000000000   1.0000000
B2   B   0.611499704179041   0.724049336396077   0.375000000000000   1.0000000
B2   B   0.944723298219343   0.722466997457687   0.375000000000000   1.0000000
B2   B   0.778103613738417   0.221896386261584   0.375000000000000   1.0000000
B2   B   0.111110065206031   0.888889934793969   0.875000000000000   1.0000000
B2   B   0.444446536254611   0.888889934793969   0.875000000000000   1.0000000
B2   B   0.277777589172139   0.388888696607558   0.875000000000000   1.0000000
B2   B   0.611112075263897   0.388887924736103   0.875000000000000   1.0000000
B2   B   0.777778119259675   0.888889571852679   0.875000000000000   1.0000000
B2   B   0.944444623296919   0.388888241285514   0.875000000000000   1.0000000
B2   B   0.110587122609588   0.388762509605885   0.375000000000000   1.0000000
B2   B   0.277732330120237   0.888797993573802   0.375000000000000   1.0000000
B2   B   0.611237490394115   0.889412877390412   0.375000000000000   1.0000000
B2   B   0.439187651229891   0.386260492281610   0.375000000000000   1.0000000
B2   B   0.944842053662968   0.889412877390412   0.375000000000000   1.0000000
B2   B   0.779216298883709   0.388500295820960   0.375000000000000   1.0000000
B2   B   0.277777355078765   0.555554060432310   0.875000000000000   1.0000000
B2   B   0.111110284655266   0.055555376703081   0.875000000000000   1.0000000
B2   B   0.611112075263897   0.555557483861124   0.875000000000000   1.0000000
B2   B   0.444445939567690   0.055556627979790   0.875000000000000   1.0000000
B2   B   0.944443372020210   0.555554060432310   0.875000000000000   1.0000000
B2   B   0.111138037195743   0.555609407724814   0.375000000000000   1.0000000
B2   B   0.777777708744517   0.055555521038926   0.875000000000000   1.0000000
B2   B   0.277533002542313   0.055276701780657   0.375000000000000   1.0000000
B2   B   0.444302325157599   0.555697674842401   0.375000000000000   1.0000000
B2   B   0.778062016351466   0.555697674842401   0.375000000000000   1.0000000
B2   B   0.611237490394115   0.055157946337032   0.375000000000000   1.0000000
B2   B   0.444445343692418   0.555554656307582   0.875000000000000   1.0000000
B2   B   0.944378453652028   0.055621546347972   0.375000000000000   1.0000000
B2   B   0.277778415230495   0.722221584769505   0.875000000000000   1.0000000
B2   B   0.111110428147321   0.222221880740325   0.875000000000000   1.0000000
B2   B   0.444445343692418   0.222224020718171   0.875000000000000   1.0000000
B2   B   0.611111303392442   0.722222410827861   0.875000000000000   1.0000000
B2   B   0.944443372020210   0.722222644921235   0.875000000000000   1.0000000
B2   B   0.777778119259675   0.222221880740325   0.875000000000000   1.0000000
B2   B   0.111202006426198   0.722267669879763   0.375000000000000   1.0000000
B2   B   0.444410365905008   0.722466997457687   0.375000000000000   1.0000000
B2   B   0.275950663603922   0.220783701116291   0.375000000000000   1.0000000
B2   B   0.779216298883709   0.724049336396077   0.375000000000000   1.0000000
B2   B   0.611499704179041   0.220783701116291   0.375000000000000   1.0000000
B2   B   0.944378453652028   0.222090240637391   0.375000000000000   1.0000000
B2   B   0.111110284655266   0.388888241285514   0.875000000000000   1.0000000
B2   B   0.277778415230495   0.888890163794319   0.875000000000000   1.0000000
B2   B   0.611111758714486   0.888889715344734   0.875000000000000   1.0000000
B2   B   0.444442516138876   0.388887924736103   0.875000000000000   1.0000000
B2   B   0.944444623296919   0.888889715344734   0.875000000000000   1.0000000
B2   B   0.111138037195743   0.888861962804257   0.375000000000000   1.0000000
B2   B   0.777777774102090   0.388888696607558   0.875000000000000   1.0000000
B2   B   0.444390592275186   0.888861962804257   0.375000000000000   1.0000000
B2   B   0.275950663603922   0.388500295820960   0.375000000000000   1.0000000
B2   B   0.277533002542313   0.555589634094992   0.375000000000000   1.0000000
B2   B   0.613739507718390   0.386260492281610   0.375000000000000   1.0000000
B2   B   0.778103613738417   0.889540560810161   0.375000000000000   1.0000000
B2   B   0.944842053662968   0.388762509605885   0.375000000000000   1.0000000
B2   B   0.111110065206031   0.555553463745389   0.875000000000000   1.0000000
B2   B   0.277777355078765   0.055556627979790   0.875000000000000   1.0000000
B2   B   0.777775979281829   0.555554656307582   0.875000000000000   1.0000000
B2   B   0.611111758714486   0.055555376703081   0.875000000000000   1.0000000
B2   B   0.944444478961073   0.055555521038926   0.875000000000000   1.0000000
B2   B   0.055553157077813   0.111110350011307   0.125001865907657   1.0000000
B2   B   0.555558728942319   0.611115847078638   0.125011920781683   1.0000000
B2   B   0.388889525673724   0.111112384680790   0.125008652521066   1.0000000
B2   B   0.888887615319210   0.611110474326277   0.125008652521066   1.0000000
B2   B   0.722223859600157   0.111110350011307   0.125001865907657   1.0000000
B2   B   0.055554915452042   0.777778946267963   0.625000215567309   1.0000000
B2   B   0.388890697482586   0.777778946267963   0.625000215567309   1.0000000
B2   B   0.222219742710098   0.277776538021717   0.624999945322421   1.0000000
B2   B   0.722223461978283   0.777780257289902   0.624999945322421   1.0000000
B2   B   0.555558728942319   0.277776215197018   0.624988079218317   1.0000000
B2   B   0.888889649988693   0.277776140399842   0.624998134092343   1.0000000
B2   B   0.222222222222221   0.777777777777779   0.124995902673148   1.0000000
B2   B   0.055553157077813   0.277776140399842   0.125001865907657   1.0000000
B2   B   0.388884152921362   0.277776215197018   0.125011920781683   1.0000000
B2   B   0.555560876999245   0.777781096126525   0.125001750869901   1.0000000
B2   B   0.888886885793945   0.777781096126525   0.125001750869901   1.0000000
B2   B   0.722223461978283   0.277776538021717   0.125000054677579   1.0000000
B2   B   0.055553417420720   0.944446582579280   0.625001119157731   1.0000000
B2   B   0.388890697482586   0.944445084547958   0.625000215567309   1.0000000
B2   B   0.222218903873475   0.444439123000756   0.624998249130099   1.0000000
B2   B   0.555555555555557   0.444444444444443   0.624988619945503   1.0000000
B2   B   0.722223859600157   0.944446842922186   0.624998134092343   1.0000000
B2   B   0.888886885793945   0.444439123000756   0.624998249130099   1.0000000
B2   B   0.055553417420720   0.444440168174769   0.124998880842269   1.0000000
B2   B   0.222221053732036   0.944445084547958   0.124999784432691   1.0000000
B2   B   0.555559831825231   0.944446582579280   0.124998880842269   1.0000000
B2   B   0.388884152921362   0.444441271057680   0.125011920781683   1.0000000
B2   B   0.888889649988693   0.944446842922186   0.125001865907657   1.0000000
B2   B   0.722223784802983   0.444441271057680   0.125011920781683   1.0000000
B2   B   0.222221053732036   0.611109302517414   0.625000215567309   1.0000000
B2   B   0.055553157077813   0.111110350011307   0.624998134092343   1.0000000
B2   B   0.555558728942319   0.611115847078638   0.624988079218317   1.0000000
B2   B   0.388889525673724   0.111112384680790   0.624991347478934   1.0000000
B2   B   0.888887615319210   0.611110474326277   0.624991347478934   1.0000000
B2   B   0.055554915452042   0.611109302517414   0.124999784432691   1.0000000
B2   B   0.722223859600157   0.111110350011307   0.624998134092343   1.0000000
B2   B   0.222218903873475   0.111113114206055   0.125001750869901   1.0000000
B2   B   0.388889525673724   0.611110474326277   0.125008652521066   1.0000000
B2   B   0.722223784802983   0.611115847078638   0.125011920781683   1.0000000
B2   B   0.555560876999245   0.111113114206055   0.125001750869901   1.0000000
B2   B   0.388889525673724   0.611110474326277   0.624991347478934   1.0000000
B2   B   0.888888888888886   0.111111111111114   0.125001896044138   1.0000000
B2   B   0.222222222222221   0.777777777777779   0.625004097326853   1.0000000
B2   B   0.055553157077813   0.277776140399842   0.624998134092343   1.0000000
B2   B   0.388884152921362   0.277776215197018   0.624988079218317   1.0000000
B2   B   0.555560876999245   0.777781096126525   0.624998249130099   1.0000000
B2   B   0.888886885793945   0.777781096126525   0.624998249130099   1.0000000
B2   B   0.722223461978283   0.277776538021717   0.624999945322421   1.0000000
B2   B   0.055554915452042   0.777778946267963   0.124999784432691   1.0000000
B2   B   0.388890697482586   0.777778946267963   0.124999784432691   1.0000000
B2   B   0.222219742710098   0.277776538021717   0.125000054677579   1.0000000
B2   B   0.722223461978283   0.777780257289902   0.125000054677579   1.0000000
B2   B   0.555558728942319   0.277776215197018   0.125011920781683   1.0000000
B2   B   0.888889649988693   0.277776140399842   0.125001865907657   1.0000000
B2   B   0.055553417420720   0.444440168174769   0.625001119157731   1.0000000
B2   B   0.222221053732036   0.944445084547958   0.625000215567309   1.0000000
B2   B   0.555559831825231   0.944446582579280   0.625001119157731   1.0000000
B2   B   0.388884152921362   0.444441271057680   0.624988079218317   1.0000000
B2   B   0.888889649988693   0.944446842922186   0.624998134092343   1.0000000
B2   B   0.055553417420720   0.944446582579280   0.124998880842269   1.0000000
B2   B   0.722223784802983   0.444441271057680   0.624988079218317   1.0000000
B2   B   0.388890697482586   0.944445084547958   0.124999784432691   1.0000000
B2   B   0.222218903873475   0.444439123000756   0.125001750869901   1.0000000
B2   B   0.222221053732036   0.611109302517414   0.124999784432691   1.0000000
B2   B   0.555555555555557   0.444444444444443   0.125011380054497   1.0000000
B2   B   0.722223859600157   0.944446842922186   0.125001865907657   1.0000000
B2   B   0.888886885793945   0.444439123000756   0.125001750869901   1.0000000
B2   B   0.055554915452042   0.611109302517414   0.625000215567309   1.0000000
B2   B   0.222218903873475   0.111113114206055   0.624998249130099   1.0000000
B2   B   0.722223784802983   0.611115847078638   0.624988079218317   1.0000000
B2   B   0.555560876999245   0.111113114206055   0.624998249130099   1.0000000
B2   B   0.888888888888886   0.111111111111114   0.624998103955862   1.0000000


