data_1
_audit_creation_method   'vasp2cif'
_cell_length_a    17.52789999999977
_cell_length_b    17.52789999999977
_cell_length_c    15.0
_cell_angle_alpha    90.0
_cell_angle_beta    90.0
_cell_angle_gamma    119.99999999999916

_symmetry_space_group_name_H-M    'P 1'
loop_
_atom_site_label
_atom_site_type_symbol
_atom_site_fract_x
_atom_site_fract_y
_atom_site_fract_z
_atom_site_occupancy
B2   B   0.904545819984473   0.952249732783988   0.120883298183788   1.0000000
B2   B   0.904435175133826   0.095063906010652   0.120138395072738   1.0000000
B2   B   0.904426171630795   0.237945979399611   0.120121457116446   1.0000000
B2   B   0.904510860692239   0.380862777445323   0.120800919847508   1.0000000
B2   B   0.905201262399450   0.523866635213974   0.122061408897522   1.0000000
B2   B   0.905405276511047   0.666982747795130   0.122024493957110   1.0000000
B2   B   0.905224619739995   0.809910785010141   0.122201211772546   1.0000000
B2   B   0.047638532314518   0.952448018760003   0.122170767467912   1.0000000
B2   B   0.047341292189814   0.095118997953312   0.120082239752368   1.0000000
B2   B   0.047239451246585   0.237901919709764   0.118748551279596   1.0000000
B2   B   0.047321618332247   0.380793924223773   0.119958114324263   1.0000000
B2   B   0.047623518431203   0.523756845661309   0.122002491455891   1.0000000
B2   B   0.047896584973925   0.666739327707311   0.123356778255764   1.0000000
B2   B   0.047912589575428   0.809715585557622   0.123433269742032   1.0000000
B2   B   0.190532945344863   0.952454292394296   0.120455611312756   1.0000000
B2   B   0.190119854668162   0.094960675223203   0.117258355787394   1.0000000
B2   B   0.189971113114631   0.237857951294905   0.112658744693435   1.0000000
B2   B   0.189965520056864   0.380685417454021   0.112581476652847   1.0000000
B2   B   0.190098796539442   0.523711312504524   0.117082502831803   1.0000000
B2   B   0.190535920608257   0.666646186124541   0.120275887590505   1.0000000
B2   B   0.190586294289173   0.809572389220919   0.121512084262858   1.0000000
B2   B   0.333315450159865   0.952388280775482   0.118467061915445   1.0000000
B2   B   0.333235628533688   0.095174755740485   0.113153895421329   1.0000000
B2   B   0.331904872075357   0.236794005348962   0.103197803140391   1.0000000
B2   B   0.331805838289248   0.380203012523439   0.093141950556311   1.0000000
B2   B   0.331904444111968   0.523691196879448   0.103137760670814   1.0000000
B2   B   0.333237942811895   0.666624041806882   0.112867938669430   1.0000000
B2   B   0.333323358803287   0.809492898781204   0.118244895472856   1.0000000
B2   B   0.476107447677302   0.952344711043314   0.117409653632898   1.0000000
B2   B   0.476084025674828   0.095191614059398   0.114098442504970   1.0000000
B2   B   0.476101840022993   0.237472650887722   0.100439842015480   1.0000000
B2   B   0.468383682533866   0.368555757990018   0.061263244438853   1.0000000
B2   B   0.468389054937460   0.528402656916058   0.061206805711721   1.0000000
B2   B   0.476128905930153   0.667203511743472   0.100244121039658   1.0000000
B2   B   0.476107573196569   0.809480277224480   0.113809262422641   1.0000000
B2   B   0.618887219642100   0.952193953293193   0.116397987282515   1.0000000
B2   B   0.618872259192152   0.095271733212938   0.116519255509032   1.0000000
B2   B   0.618957927535199   0.238326557204830   0.110245076814182   1.0000000
B2   B   0.619807221669276   0.381716016846719   0.093573366708648   1.0000000
B2   B   0.632806225913317   0.530685182253533   0.067003093541331   1.0000000
B2   B   0.619836693680702   0.666685508637078   0.093509119288773   1.0000000
B2   B   0.618990778922608   0.809231024392705   0.110085064079271   1.0000000
B2   B   0.761672932178214   0.952158756555446   0.117422226275821   1.0000000
B2   B   0.761612293077105   0.095084265658303   0.118493070038887   1.0000000
B2   B   0.761648137009823   0.238065818352817   0.117435795186962   1.0000000
B2   B   0.761764345889697   0.381077146483940   0.114845042112073   1.0000000
B2   B   0.763583491394055   0.524293701301712   0.112110631288426   1.0000000
B2   B   0.763595561367917   0.667862877430958   0.112152617200013   1.0000000
B2   B   0.761794680720262   0.809289581908221   0.114889667254163   1.0000000
Ga2   Ga   0.530763484180871   0.479679481049211   0.971857558710211   1.0000000
N2   N   0.952501619467365   0.904985683962900   0.122518791048317   1.0000000
N2   N   0.952102712530353   0.047498984706113   0.120968499535912   1.0000000
N2   N   0.952038867846922   0.190308981386351   0.120204720195312   1.0000000
N2   N   0.952081214067032   0.333176267864761   0.120897443471705   1.0000000
N2   N   0.952484139236026   0.476080457232619   0.122372364162826   1.0000000
N2   N   0.952777737559746   0.619126103264449   0.123483974270532   1.0000000
N2   N   0.952790943927046   0.762215629293142   0.123575353884087   1.0000000
N2   N   0.095381027540296   0.904934652892664   0.122587191932973   1.0000000
N2   N   0.095061961322986   0.047593418012240   0.120571351707796   1.0000000
N2   N   0.094939689485983   0.190372825942908   0.117954469214587   1.0000000
N2   N   0.094928574777504   0.333137235043315   0.117879157994557   1.0000000
N2   N   0.095045389403292   0.476034615573214   0.120394457836426   1.0000000
N2   N   0.095377339400057   0.619007171205829   0.122441276322907   1.0000000
N2   N   0.095451270527440   0.762001904505327   0.123173201852501   1.0000000
N2   N   0.238148519063882   0.904821267862729   0.120456754509235   1.0000000
N2   N   0.238065294699382   0.047668643737957   0.117480227348446   1.0000000
N2   N   0.237418765175570   0.190036296210304   0.112490286199017   1.0000000
N2   N   0.237643326483693   0.333110499836876   0.107248977640026   1.0000000
N2   N   0.237412286655802   0.475951668467630   0.112385945602994   1.0000000
N2   N   0.238062235567898   0.618957297603214   0.117233638407798   1.0000000
N2   N   0.238154705432133   0.761892910562443   0.120301078523591   1.0000000
N2   N   0.380916830975393   0.904741814594737   0.118509897800050   1.0000000
N2   N   0.380886560374018   0.047633064392505   0.115550399626297   1.0000000
N2   N   0.380675026450073   0.190212794301566   0.105167502260775   1.0000000
N2   N   0.378251821790582   0.331115513393516   0.088093651454880   1.0000000
N2   N   0.378265534283034   0.475724939163795   0.088100352339828   1.0000000
N2   N   0.380691434378231   0.619039374702210   0.104982272187656   1.0000000
N2   N   0.380898121179373   0.761829255633766   0.115181765451886   1.0000000
N2   N   0.523684376870548   0.904651180484000   0.116414071073747   1.0000000
N2   N   0.523673913552223   0.047608202318272   0.116596651507144   1.0000000
N2   N   0.523712534573270   0.190411062688777   0.109144266661270   1.0000000
N2   N   0.523717584845249   0.332146947131612   0.084588815633228   1.0000000
N2   N   0.523750161766678   0.620149123249577   0.084525048696556   1.0000000
N2   N   0.523740432174751   0.761892189809093   0.108878813745841   1.0000000
N2   N   0.666448241250389   0.904409873167990   0.115058160342095   1.0000000
N2   N   0.666405450884334   0.047493872447466   0.117577541567075   1.0000000
N2   N   0.666422929990024   0.190608560926635   0.115195694231612   1.0000000
N2   N   0.666397274815697   0.333781978717539   0.107170281326690   1.0000000
N2   N   0.670161729750114   0.477617052213489   0.094695520192659   1.0000000
N2   N   0.670177545124601   0.621123356274946   0.094687253400630   1.0000000
N2   N   0.666432972177752   0.761216747340990   0.107101296339631   1.0000000
N2   N   0.809228889841316   0.904500492131157   0.118435461744154   1.0000000
N2   N   0.809200917803471   0.047409563517291   0.119079391840471   1.0000000
N2   N   0.809189579646117   0.190354530428202   0.119078963285615   1.0000000
N2   N   0.809195591704182   0.333291028925548   0.118374829658718   1.0000000
N2   N   0.810175472382420   0.476212124218675   0.118577974681174   1.0000000
N2   N   0.810566817711308   0.619565656890506   0.116857773303063   1.0000000
N2   N   0.810191964915462   0.762544668314036   0.118686878828540   1.0000000


