data_1
_audit_creation_method   'vasp2cif'
_cell_length_a    14.93631414619966
_cell_length_b    14.936314146199727
_cell_length_c    13.341276283792837
_cell_angle_alpha    90.0
_cell_angle_beta    90.0
_cell_angle_gamma    119.99999999999984

_symmetry_space_group_name_H-M    'P 1'
loop_
_atom_site_label
_atom_site_type_symbol
_atom_site_fract_x
_atom_site_fract_y
_atom_site_fract_z
_atom_site_occupancy
O2   O   0.441421238014152   0.387377285673740   0.375000000000000   1.0000000
N2   N   0.111081162901291   0.055542278362070   0.125138808002811   1.0000000
N2   N   0.611091704195307   0.555518651505263   0.126131760921841   1.0000000
N2   N   0.444417749894866   0.055550466992631   0.125185158969461   1.0000000
N2   N   0.944458664927551   0.555563352641414   0.125166927173381   1.0000000
N2   N   0.777718504463875   0.055525918898606   0.125137905639349   1.0000000
N2   N   0.111118784463881   0.722226058898605   0.624876445325956   1.0000000
N2   N   0.444417749894866   0.722200616235570   0.624814841030538   1.0000000
N2   N   0.277728779608900   0.222211405102665   0.624755163619708   1.0000000
N2   N   0.777765043538167   0.722199570311473   0.624666582731505   1.0000000
N2   N   0.611073579984586   0.222224131782678   0.624617932276842   1.0000000
N2   N   0.944390777787525   0.222200764261565   0.624897908842356   1.0000000
N2   N   0.277768764274092   0.722215154966352   0.125116871267340   1.0000000
N2   N   0.111042747784971   0.222188040559150   0.125077999361347   1.0000000
N2   N   0.444437966917478   0.222230987335080   0.125375177636186   1.0000000
N2   N   0.611073579984586   0.722182781535237   0.125382067723158   1.0000000
N2   N   0.944458664927551   0.722228645619472   0.125166927173381   1.0000000
N2   N   0.777734501700524   0.222214642897656   0.125164302445150   1.0000000
N2   N   0.111110674372040   0.888891660488521   0.624881209850250   1.0000000
N2   N   0.444413848150537   0.888873590741934   0.624852227925655   1.0000000
N2   N   0.277728779608900   0.388850707839564   0.624755163619708   1.0000000
N2   N   0.611091704195307   0.388906386023372   0.623868239078159   1.0000000
N2   N   0.777734501700524   0.888853192136196   0.624835697554850   1.0000000
N2   N   0.944430110336510   0.388887558904400   0.624878574954145   1.0000000
N2   N   0.111081162901291   0.388872217872550   0.125138808002811   1.0000000
N2   N   0.277768764274092   0.888886942641068   0.125116871267340   1.0000000
N2   N   0.611061335192502   0.888858846524026   0.125158638072421   1.0000000
N2   N   0.444387347793418   0.388860340563373   0.125036879130289   1.0000000
N2   N   0.944430110336510   0.888875884765438   0.125121425045855   1.0000000
N2   N   0.777765043538167   0.388898806560023   0.125333417268495   1.0000000
N2   N   0.277763261052456   0.555539229157719   0.624854110593763   1.0000000
N2   N   0.111081162901291   0.055542278362070   0.624861191997189   1.0000000
N2   N   0.611091704195307   0.555518651505263   0.623868239078159   1.0000000
N2   N   0.444417749894866   0.055550466992631   0.624814841030538   1.0000000
N2   N   0.944458664927551   0.555563352641414   0.624833072826618   1.0000000
N2   N   0.111110674372040   0.555552347216848   0.125118790149750   1.0000000
N2   N   0.777718504463875   0.055525918898606   0.624862094360651   1.0000000
N2   N   0.277763261052456   0.055557365228073   0.125145889406238   1.0000000
N2   N   0.444437966917478   0.555540312915734   0.125375177636186   1.0000000
N2   N   0.777789404278909   0.555561368806123   0.125525595034065   1.0000000
N2   N   0.611061335192502   0.055535822001805   0.125158638072421   1.0000000
N2   N   0.444437966917478   0.555540312915734   0.624624822363813   1.0000000
N2   N   0.944390777787525   0.055523346859295   0.125102091157643   1.0000000
N2   N   0.277768764274092   0.722215154966352   0.624883128732659   1.0000000
N2   N   0.111042747784971   0.222188040559150   0.624922000638654   1.0000000
N2   N   0.444437966917478   0.222230987335080   0.624624822363813   1.0000000
N2   N   0.611073579984586   0.722182781535237   0.624617932276842   1.0000000
N2   N   0.944458664927551   0.722228645619472   0.624833072826618   1.0000000
N2   N   0.777734501700524   0.222214642897656   0.624835697554850   1.0000000
N2   N   0.111118784463881   0.722226058898605   0.125123554674045   1.0000000
N2   N   0.444417749894866   0.722200616235570   0.125185158969461   1.0000000
N2   N   0.277728779608900   0.222211405102665   0.125244836380292   1.0000000
N2   N   0.777765043538167   0.722199570311473   0.125333417268495   1.0000000
N2   N   0.611073579984586   0.222224131782678   0.125382067723158   1.0000000
N2   N   0.944390777787525   0.222200764261565   0.125102091157643   1.0000000
N2   N   0.111081162901291   0.388872217872550   0.624861191997189   1.0000000
N2   N   0.277768764274092   0.888886942641068   0.624883128732659   1.0000000
N2   N   0.611061335192502   0.888858846524026   0.624841361927579   1.0000000
N2   N   0.444387347793418   0.388860340563373   0.624963120869712   1.0000000
N2   N   0.944430110336510   0.888875884765438   0.624878574954145   1.0000000
N2   N   0.111110674372040   0.888891660488521   0.125118790149750   1.0000000
N2   N   0.777765043538167   0.388898806560023   0.624666582731505   1.0000000
N2   N   0.444413848150537   0.888873590741934   0.125147772074345   1.0000000
N2   N   0.277728779608900   0.388850707839564   0.125244836380292   1.0000000
N2   N   0.277763261052456   0.555539229157719   0.125145889406238   1.0000000
N2   N   0.611091704195307   0.388906386023372   0.126131760921841   1.0000000
N2   N   0.777734501700524   0.888853192136196   0.125164302445150   1.0000000
N2   N   0.944430110336510   0.388887558904400   0.125121425045855   1.0000000
N2   N   0.111110674372040   0.555552347216848   0.624881209850250   1.0000000
N2   N   0.277763261052456   0.055557365228073   0.624854110593763   1.0000000
N2   N   0.777789404278909   0.555561368806123   0.624474404965934   1.0000000
N2   N   0.611061335192502   0.055535822001805   0.624841361927579   1.0000000
N2   N   0.944390777787525   0.055523346859295   0.624897908842356   1.0000000
N2   N   0.053262299095208   0.109763126252498   0.375000000000000   1.0000000
N2   N   0.555146775030059   0.604330613726270   0.375000000000000   1.0000000
N2   N   0.389254704336932   0.114879501612138   0.375000000000000   1.0000000
N2   N   0.892284098144564   0.612808715738954   0.375000000000000   1.0000000
N2   N   0.721056720037591   0.111104963472527   0.375000000000000   1.0000000
N2   N   0.055551134915189   0.777777702087689   0.875000000000000   1.0000000
N2   N   0.388893747910774   0.777778357058354   0.875000000000000   1.0000000
N2   N   0.222220122558004   0.277776727945670   0.875000000000000   1.0000000
N2   N   0.722224877386697   0.777779246058431   0.875000000000000   1.0000000
N2   N   0.555560022494941   0.277783876205235   0.875000000000000   1.0000000
N2   N   0.888890889818735   0.277777819613556   0.875000000000000   1.0000000
N2   N   0.223781533282769   0.778557433308053   0.375000000000000   1.0000000
N2   N   0.053262299095208   0.276832506176045   0.375000000000000   1.0000000
N2   N   0.383789489894883   0.277917343087985   0.375000000000000   1.0000000
N2   N   0.555323771743938   0.775073758633285   0.375000000000000   1.0000000
N2   N   0.890372461836818   0.778464805189862   0.375000000000000   1.0000000
N2   N   0.721665291063247   0.278992604123425   0.375000000000000   1.0000000
N2   N   0.055552511080073   0.944445317775236   0.875000000000000   1.0000000
N2   N   0.388893747910774   0.944448724185756   0.875000000000000   1.0000000
N2   N   0.222219473861252   0.444440893683919   0.875000000000000   1.0000000
N2   N   0.555560311139894   0.444446822236611   0.875000000000000   1.0000000
N2   N   0.722224234241005   0.944445798057218   0.875000000000000   1.0000000
N2   N   0.888888817146043   0.444441914800665   0.875000000000000   1.0000000
N2   N   0.055766610186101   0.444305862066886   0.375000000000000   1.0000000
N2   N   0.223335308776889   0.945890917694318   0.375000000000000   1.0000000
N2   N   0.555326610510609   0.944329971921969   0.375000000000000   1.0000000
N2   N   0.383789489894883   0.439205480140233   0.375000000000000   1.0000000
N2   N   0.887673768561374   0.943396466353554   0.375000000000000   1.0000000
N2   N   0.725915822312671   0.447510639061512   0.375000000000000   1.0000000
N2   N   0.222220160372145   0.611107354141688   0.875000000000000   1.0000000
N2   N   0.055553525675825   0.111110118918659   0.875000000000000   1.0000000
N2   N   0.555560022494941   0.611109479623041   0.875000000000000   1.0000000
N2   N   0.388892108770126   0.111117235139249   0.875000000000000   1.0000000
N2   N   0.888885919111002   0.611109626222172   0.875000000000000   1.0000000
N2   N   0.057529679421878   0.611830625901164   0.375000000000000   1.0000000
N2   N   0.722224234241005   0.111111769517123   0.875000000000000   1.0000000
N2   N   0.221385783068023   0.111452397843749   0.375000000000000   1.0000000
N2   N   0.389254704336932   0.607708536058137   0.375000000000000   1.0000000
N2   N   0.725915822312671   0.611738516584496   0.375000000000000   1.0000000
N2   N   0.555323771743938   0.113583346443989   0.375000000000000   1.0000000
N2   N   0.388892108770126   0.611108206964219   0.875000000000000   1.0000000
N2   N   0.887048610619792   0.110190971976567   0.375000000000000   1.0000000
N2   N   0.222221082452541   0.777777207892938   0.875000000000000   1.0000000
N2   N   0.055553525675825   0.277776740090502   0.875000000000000   1.0000000
N2   N   0.388890397943723   0.277779538291324   0.875000000000000   1.0000000
N2   N   0.555560216042007   0.777778270172855   0.875000000000000   1.0000000
N2   N   0.888888817146043   0.777780235678714   0.875000000000000   1.0000000
N2   N   0.722224877386697   0.277778964661602   0.875000000000000   1.0000000
N2   N   0.057529679421878   0.779032386854050   0.375000000000000   1.0000000
N2   N   0.389714984990939   0.776990993600849   0.375000000000000   1.0000000
N2   N   0.217625863521232   0.275479598427284   0.375000000000000   1.0000000
N2   N   0.721665291063247   0.776006020273158   0.375000000000000   1.0000000
N2   N   0.555146775030059   0.284149494637125   0.375000000000000   1.0000000
N2   N   0.887673768561374   0.277610635541156   0.375000000000000   1.0000000
N2   N   0.055552511080073   0.444440526638166   0.875000000000000   1.0000000
N2   N   0.222220160372145   0.944446139563793   0.875000000000000   1.0000000
N2   N   0.555558846120165   0.944446089726747   0.875000000000000   1.0000000
N2   N   0.388890397943723   0.444444192985734   0.875000000000000   1.0000000
N2   N   0.888890889818735   0.944446403538514   0.875000000000000   1.0000000
N2   N   0.055766610186101   0.944794081452542   0.375000000000000   1.0000000
N2   N   0.722221029397740   0.444443829387426   0.875000000000000   1.0000000
N2   N   0.389714984990939   0.946057324723426   0.375000000000000   1.0000000
N2   N   0.221385783068023   0.443266718557610   0.375000000000000   1.0000000
N2   N   0.223335308776889   0.610777724415907   0.375000000000000   1.0000000
N2   N   0.721056720037591   0.943285089898400   0.375000000000000   1.0000000
N2   N   0.890372461836818   0.445240989980292   0.375000000000000   1.0000000
N2   N   0.055551134915189   0.611106766160835   0.875000000000000   1.0000000
N2   N   0.222219473861252   0.111111913510669   0.875000000000000   1.0000000
N2   N   0.722221029397740   0.611110533343649   0.875000000000000   1.0000000
N2   N   0.555560216042007   0.111115279202488   0.875000000000000   1.0000000
N2   N   0.888890344093556   0.111111838713450   0.875000000000000   1.0000000
B2   B   0.110050660591480   0.055530132243305   0.375000000000000   1.0000000
B2   B   0.619264343597655   0.561382652557409   0.375000000000000   1.0000000
B2   B   0.444163049649088   0.057668777118475   0.375000000000000   1.0000000
B2   B   0.947238839511173   0.556470318246592   0.375000000000000   1.0000000
B2   B   0.776237486854194   0.054785410093765   0.375000000000000   1.0000000
B2   B   0.111121936176339   0.722227634754833   0.875000000000000   1.0000000
B2   B   0.444435023923424   0.722226677916042   0.875000000000000   1.0000000
B2   B   0.277750314291896   0.222208197927821   0.875000000000000   1.0000000
B2   B   0.777801839857620   0.722257157358735   0.875000000000000   1.0000000
B2   B   0.611114763992281   0.222202380228668   0.875000000000000   1.0000000
B2   B   0.944453894202991   0.222217977024602   0.875000000000000   1.0000000
B2   B   0.278676503149697   0.722094975218805   0.375000000000000   1.0000000
B2   B   0.107221708990716   0.220277521162022   0.375000000000000   1.0000000
B2   B   0.443061702046238   0.226371251135167   0.375000000000000   1.0000000
B2   B   0.610875539400280   0.719794089577641   0.375000000000000   1.0000000
B2   B   0.947238839511173   0.724101854597915   0.375000000000000   1.0000000
B2   B   0.776841665846990   0.222080933219626   0.375000000000000   1.0000000
B2   B   0.111115563673092   0.888898759513522   0.875000000000000   1.0000000
B2   B   0.444441585044950   0.888887459189139   0.875000000000000   1.0000000
B2   B   0.277750314291896   0.388875449697404   0.875000000000000   1.0000000
B2   B   0.611107045172960   0.388877769187264   0.875000000000000   1.0000000
B2   B   0.777796732503628   0.888920495756506   0.875000000000000   1.0000000
B2   B   0.944461907720551   0.388878917268767   0.875000000000000   1.0000000
B2   B   0.110050660591480   0.387853861681503   0.375000000000000   1.0000000
B2   B   0.278676503149697   0.889914861264219   0.375000000000000   1.0000000
B2   B   0.610246754733028   0.887561317317077   0.375000000000000   1.0000000
B2   B   0.944972026258926   0.889633518923336   0.375000000000000   1.0000000
B2   B   0.780450172412943   0.389406647180393   0.375000000000000   1.0000000
B2   B   0.277759431444207   0.555547926280315   0.875000000000000   1.0000000
B2   B   0.111102909506982   0.055558378531370   0.875000000000000   1.0000000
B2   B   0.611107045172960   0.555562609319025   0.875000000000000   1.0000000
B2   B   0.444435023923424   0.055541679340717   0.875000000000000   1.0000000
B2   B   0.944469646145708   0.555557677860081   0.875000000000000   1.0000000
B2   B   0.112340766036745   0.555523474322389   0.375000000000000   1.0000000
B2   B   0.777792940009214   0.055563136671275   0.875000000000000   1.0000000
B2   B   0.277806458302396   0.056952093820660   0.375000000000000   1.0000000
B2   B   0.443061702046238   0.550023784244406   0.375000000000000   1.0000000
B2   B   0.783472260793997   0.558402797063666   0.375000000000000   1.0000000
B2   B   0.610246754733028   0.056018770749281   0.375000000000000   1.0000000
B2   B   0.444416821410541   0.555547496467288   0.875000000000000   1.0000000
B2   B   0.942454635736029   0.054476464209349   0.375000000000000   1.0000000
B2   B   0.277773501669340   0.722220857072477   0.875000000000000   1.0000000
B2   B   0.111098075820230   0.222215704576779   0.875000000000000   1.0000000
B2   B   0.444416821410541   0.222202658276589   0.875000000000000   1.0000000
B2   B   0.611114763992281   0.722245717096943   0.875000000000000   1.0000000
B2   B   0.944469646145708   0.722245301618963   0.875000000000000   1.0000000
B2   B   0.777796732503628   0.222209570080450   0.875000000000000   1.0000000
B2   B   0.112978427983929   0.723155880658629   0.375000000000000   1.0000000
B2   B   0.444163049649088   0.719827605863948   0.375000000000000   1.0000000
B2   B   0.273435479431361   0.221782456076962   0.375000000000000   1.0000000
B2   B   0.780450172412943   0.724376858565878   0.375000000000000   1.0000000
B2   B   0.610875539400280   0.224414783155967   0.375000000000000   1.0000000
B2   B   0.942454635736029   0.221311504860015   0.375000000000000   1.0000000
B2   B   0.111102909506982   0.388877864308940   0.875000000000000   1.0000000
B2   B   0.277773501669340   0.888885977930192   0.875000000000000   1.0000000
B2   B   0.611117936791457   0.888904088820039   0.875000000000000   1.0000000
B2   B   0.444408214412273   0.388870773872801   0.875000000000000   1.0000000
B2   B   0.944461907720551   0.888916323785112   0.875000000000000   1.0000000
B2   B   0.112340766036745   0.890150625047684   0.375000000000000   1.0000000
B2   B   0.777801839857620   0.388878015832214   0.875000000000000   1.0000000
B2   B   0.444435852905825   0.888884593119577   0.375000000000000   1.0000000
B2   B   0.273435479431361   0.384986356687728   0.375000000000000   1.0000000
B2   B   0.277806458302396   0.554187697815072   0.375000000000000   1.0000000
B2   B   0.619264343597655   0.391215024373573   0.375000000000000   1.0000000
B2   B   0.776841665846990   0.888094065960693   0.375000000000000   1.0000000
B2   B   0.944972026258926   0.388671840668919   0.375000000000000   1.0000000
B2   B   0.111115563673092   0.555550137492898   0.875000000000000   1.0000000
B2   B   0.277759431444207   0.055544838497225   0.875000000000000   1.0000000
B2   B   0.777802547097637   0.555567940215487   0.875000000000000   1.0000000
B2   B   0.611117936791457   0.055547181304748   0.875000000000000   1.0000000
B2   B   0.944453894202991   0.055569250511725   0.875000000000000   1.0000000
B2   B   0.055504572669737   0.111085194392819   0.124880975895554   1.0000000
B2   B   0.555442827400915   0.611130912423763   0.124999297687538   1.0000000
B2   B   0.388806035171625   0.111022941819083   0.124910248973962   1.0000000
B2   B   0.889050329290998   0.611191831312170   0.124828216041118   1.0000000
B2   B   0.722176507454643   0.111061585801520   0.124894200846155   1.0000000
B2   B   0.055651262785339   0.777828224694014   0.625117282660886   1.0000000
B2   B   0.388833645855929   0.777777556727082   0.625079732778609   1.0000000
B2   B   0.222116057607461   0.277724695470398   0.625129116227220   1.0000000
B2   B   0.722224880731355   0.777841291483585   0.625131638491903   1.0000000
B2   B   0.555442827400915   0.277645248310488   0.625000702312462   1.0000000
B2   B   0.888894321931867   0.277760279461793   0.625123933001851   1.0000000
B2   B   0.222241555005053   0.777787444169195   0.124917674324415   1.0000000
B2   B   0.055504572669737   0.277752711610254   0.124880975895554   1.0000000
B2   B   0.388780352266743   0.277749262497777   0.124960565850187   1.0000000
B2   B   0.555476400916846   0.777806048516791   0.124891579433258   1.0000000
B2   B   0.888986572785699   0.777853356406894   0.124833739362504   1.0000000
B2   B   0.722224880731355   0.277716922581107   0.124868361508096   1.0000000
B2   B   0.055580111020603   0.944457010478267   0.625107534428600   1.0000000
B2   B   0.388833645855929   0.944389422462183   0.625079732778609   1.0000000
B2   B   0.222161003520668   0.444425604204548   0.625079978920932   1.0000000
B2   B   0.555319536496956   0.444326434915143   0.624784380308557   1.0000000
B2   B   0.722176507454643   0.944448254986460   0.625105799153845   1.0000000
B2   B   0.888986572785699   0.444466549712141   0.625166260637495   1.0000000
B2   B   0.055580111020603   0.444456433875664   0.124892465571400   1.0000000
B2   B   0.222217648778912   0.944424221691464   0.124905038389285   1.0000000
B2   B   0.555483722545588   0.944408527939458   0.124911090154096   1.0000000
B2   B   0.388780352266743   0.444364423102302   0.124960565850187   1.0000000
B2   B   0.888894321931867   0.944467375803410   0.124876066998149   1.0000000
B2   B   0.722287924352194   0.444450217552528   0.124987876889321   1.0000000
B2   B   0.222217648778912   0.611126760420783   0.625094961610715   1.0000000
B2   B   0.055504572669737   0.111085194392819   0.625119024104446   1.0000000
B2   B   0.555442827400915   0.611130912423763   0.625000702312462   1.0000000
B2   B   0.388806035171625   0.111022941819083   0.625089751026039   1.0000000
B2   B   0.889050329290998   0.611191831312170   0.625171783958882   1.0000000
B2   B   0.055651262785339   0.611156371424662   0.124882717339113   1.0000000
B2   B   0.722176507454643   0.111061585801520   0.625105799153845   1.0000000
B2   B   0.222161003520668   0.111068732649456   0.124920021079067   1.0000000
B2   B   0.388806035171625   0.611116426685886   0.124910248973962   1.0000000
B2   B   0.722287924352194   0.611171040133001   0.124987876889321   1.0000000
B2   B   0.555476400916846   0.111003685733391   0.124891579433258   1.0000000
B2   B   0.388806035171625   0.611116426685886   0.625089751026039   1.0000000
B2   B   0.888853741434500   0.111093537383922   0.124898355613877   1.0000000
B2   B   0.222241555005053   0.777787444169195   0.625082325675585   1.0000000
B2   B   0.055504572669737   0.277752711610254   0.625119024104446   1.0000000
B2   B   0.388780352266743   0.277749262497777   0.625039434149813   1.0000000
B2   B   0.555476400916846   0.777806048516791   0.625108420566741   1.0000000
B2   B   0.888986572785699   0.777853356406894   0.625166260637495   1.0000000
B2   B   0.722224880731355   0.277716922581107   0.625131638491903   1.0000000
B2   B   0.055651262785339   0.777828224694014   0.124882717339113   1.0000000
B2   B   0.388833645855929   0.777777556727082   0.124920267221392   1.0000000
B2   B   0.222116057607461   0.277724695470398   0.124870883772779   1.0000000
B2   B   0.722224880731355   0.777841291483585   0.124868361508096   1.0000000
B2   B   0.555442827400915   0.277645248310488   0.124999297687538   1.0000000
B2   B   0.888894321931867   0.277760279461793   0.124876066998149   1.0000000
B2   B   0.055580111020603   0.444456433875664   0.625107534428600   1.0000000
B2   B   0.222217648778912   0.944424221691464   0.625094961610715   1.0000000
B2   B   0.555483722545588   0.944408527939458   0.625088909845904   1.0000000
B2   B   0.388780352266743   0.444364423102302   0.625039434149813   1.0000000
B2   B   0.888894321931867   0.944467375803410   0.625123933001851   1.0000000
B2   B   0.055580111020603   0.944457010478267   0.124892465571400   1.0000000
B2   B   0.722287924352194   0.444450217552528   0.625012123110679   1.0000000
B2   B   0.388833645855929   0.944389422462183   0.124920267221392   1.0000000
B2   B   0.222161003520668   0.444425604204548   0.124920021079067   1.0000000
B2   B   0.222217648778912   0.611126760420783   0.124905038389285   1.0000000
B2   B   0.555319536496956   0.444326434915143   0.125215619691443   1.0000000
B2   B   0.722176507454643   0.944448254986460   0.124894200846155   1.0000000
B2   B   0.888986572785699   0.444466549712141   0.124833739362504   1.0000000
B2   B   0.055651262785339   0.611156371424662   0.625117282660886   1.0000000
B2   B   0.222161003520668   0.111068732649456   0.625079978920932   1.0000000
B2   B   0.722287924352194   0.611171040133001   0.625012123110679   1.0000000
B2   B   0.555476400916846   0.111003685733391   0.625108420566741   1.0000000
B2   B   0.888853741434500   0.111093537383922   0.625101644386123   1.0000000


