data_1
_audit_creation_method   'vasp2cif'
_cell_length_a    17.52789999999977
_cell_length_b    17.52789999999977
_cell_length_c    15.0
_cell_angle_alpha    90.0
_cell_angle_beta    90.0
_cell_angle_gamma    119.99999999999916

_symmetry_space_group_name_H-M    'P 1'
loop_
_atom_site_label
_atom_site_type_symbol
_atom_site_fract_x
_atom_site_fract_y
_atom_site_fract_z
_atom_site_occupancy
B2   B   0.905519138071377   0.953582404811506   0.116258463358776   1.0000000
B2   B   0.904452982866751   0.096010014689384   0.114526224401651   1.0000000
B2   B   0.904038822321162   0.238807728798775   0.110990241745171   1.0000000
B2   B   0.903989721001921   0.381614768741116   0.109092368745948   1.0000000
B2   B   0.904225975431004   0.524328133642221   0.108752798926680   1.0000000
B2   B   0.905136733840592   0.667179318545045   0.108262337403453   1.0000000
B2   B   0.905960642456776   0.810635800581757   0.113611305181237   1.0000000
B2   B   0.047552062000051   0.952029910092229   0.116583317348862   1.0000000
B2   B   0.046639914225139   0.094633228894615   0.115178417970476   1.0000000
B2   B   0.046420218904991   0.237891948191901   0.110604667901292   1.0000000
B2   B   0.046757499153095   0.381073562184426   0.107625129066243   1.0000000
B2   B   0.047465095324242   0.523883095741823   0.107875101749833   1.0000000
B2   B   0.047940845681815   0.666574553154106   0.109791563547475   1.0000000
B2   B   0.047978117860545   0.809328440630530   0.113349087215319   1.0000000
B2   B   0.190272534397096   0.951436431330762   0.114945227392241   1.0000000
B2   B   0.188930458874402   0.093312174476083   0.114813308223468   1.0000000
B2   B   0.187528169442871   0.235444811681553   0.110856866194666   1.0000000
B2   B   0.188748895739423   0.379881706874322   0.105962230144186   1.0000000
B2   B   0.190623980266160   0.523289800593425   0.106016790582025   1.0000000
B2   B   0.191126597540624   0.666180714780751   0.108221920484915   1.0000000
B2   B   0.190820732506097   0.808919001261216   0.111461492154326   1.0000000
B2   B   0.333317587816253   0.951620081156690   0.112547314380443   1.0000000
B2   B   0.332483309260169   0.093828242094666   0.115237324741514   1.0000000
B2   B   0.329748780759999   0.233971942935859   0.114668832233299   1.0000000
B2   B   0.327437804438006   0.375772732392690   0.108976350978104   1.0000000
B2   B   0.333765375988051   0.522008663432587   0.105407898208945   1.0000000
B2   B   0.334588083188805   0.665679141788445   0.108473206744257   1.0000000
B2   B   0.333865206008816   0.808854220606776   0.109846679809749   1.0000000
B2   B   0.476310822552897   0.952530943585899   0.111200859410836   1.0000000
B2   B   0.475749870492727   0.095248436446035   0.113033966214310   1.0000000
B2   B   0.474889361484067   0.237546016892409   0.116159890399928   1.0000000
B2   B   0.467621981031222   0.371473279196998   0.133626634281384   1.0000000
B2   B   0.478408092898761   0.666965480902370   0.114264448838540   1.0000000
B2   B   0.476981639337886   0.809752794876815   0.110714819692333   1.0000000
B2   B   0.619301640180304   0.953655250560139   0.112629363059980   1.0000000
B2   B   0.618717524820340   0.096282426566162   0.112206859184603   1.0000000
B2   B   0.618246926574159   0.239289794068597   0.112983374938082   1.0000000
B2   B   0.618013883940137   0.383104916095554   0.111645096556870   1.0000000
B2   B   0.625517751695256   0.530789554282556   0.073961519241827   1.0000000
B2   B   0.624834146442169   0.673029551926476   0.107730017864775   1.0000000
B2   B   0.620480896020915   0.811771740744014   0.112811041333274   1.0000000
B2   B   0.762502847868355   0.954095782451901   0.114601075458793   1.0000000
B2   B   0.761643794529022   0.096448149280960   0.113122713972842   1.0000000
B2   B   0.761216573385198   0.239192205880570   0.111293891993604   1.0000000
B2   B   0.760916259452891   0.382035595200378   0.109829204454066   1.0000000
B2   B   0.760801002154921   0.524743316786299   0.104888206976767   1.0000000
B2   B   0.764277683174257   0.669699786691041   0.103362951891945   1.0000000
B2   B   0.764686085121248   0.812880895562692   0.111762411620425   1.0000000
Ge2   Ge   0.493709446599098   0.507081887762808   0.116495701981272   1.0000000
N2   N   0.952825310559355   0.905482731284799   0.116621388753650   1.0000000
N2   N   0.952061219545996   0.048263603215922   0.116245371863599   1.0000000
N2   N   0.951518687097021   0.191001564270252   0.112192449026260   1.0000000
N2   N   0.951565485812971   0.333913063274572   0.109080221745238   1.0000000
N2   N   0.951966463637987   0.476705287412599   0.108554919433971   1.0000000
N2   N   0.952620409114289   0.619418982741145   0.109050430610338   1.0000000
N2   N   0.952958510635675   0.762346281991007   0.112031526733418   1.0000000
N2   N   0.095250562363923   0.904370812548130   0.115644596229181   1.0000000
N2   N   0.094253012725204   0.046822708260720   0.116251828879406   1.0000000
N2   N   0.093189872884444   0.189305722738034   0.112270079019545   1.0000000
N2   N   0.093846739728491   0.333000576595197   0.107471485548700   1.0000000
N2   N   0.095124341657055   0.476215355196743   0.106784414873445   1.0000000
N2   N   0.095689236712189   0.618993868327102   0.108487516386454   1.0000000
N2   N   0.095639966787068   0.761689709256821   0.111525733096656   1.0000000
N2   N   0.238169087429654   0.904065112893861   0.113172408805902   1.0000000
N2   N   0.237369373605787   0.046454439486268   0.115468610150849   1.0000000
N2   N   0.235376776364859   0.187903050341888   0.112400396458639   1.0000000
N2   N   0.233861908394751   0.329900351261379   0.107406318925911   1.0000000
N2   N   0.237942853387473   0.475260024589140   0.104768715500278   1.0000000
N2   N   0.239015265028030   0.618542025295696   0.106893690603066   1.0000000
N2   N   0.238620556256606   0.761380355303920   0.109591978559081   1.0000000
N2   N   0.381127830487713   0.904234483351402   0.110887340328539   1.0000000
N2   N   0.380575726573980   0.046881462270527   0.113723063653616   1.0000000
N2   N   0.379563480415150   0.188927300412075   0.116427129241714   1.0000000
N2   N   0.375684441241646   0.328692818263434   0.117936459720646   1.0000000
N2   N   0.376091946600361   0.469331054914953   0.103137497045267   1.0000000
N2   N   0.382664962019682   0.617727706542588   0.109525890301455   1.0000000
N2   N   0.381682212699658   0.761215540937037   0.109426581334148   1.0000000
N2   N   0.524121824187255   0.905184714679052   0.111129184505529   1.0000000
N2   N   0.523558209622074   0.047954372733308   0.111918389496147   1.0000000
N2   N   0.522989687483992   0.190729527353611   0.113690253662810   1.0000000
N2   N   0.522077987234013   0.333623496165480   0.120447963109470   1.0000000
N2   N   0.531473846985229   0.625378446002991   0.119465732400997   1.0000000
N2   N   0.525076079618302   0.762687447261612   0.112155056397526   1.0000000
N2   N   0.667378064186586   0.906678602131635   0.113753147879400   1.0000000
N2   N   0.666496515204535   0.048864029444061   0.112652727139164   1.0000000
N2   N   0.665963988975207   0.191691788310557   0.112166648456139   1.0000000
N2   N   0.665337386320850   0.334896578103205   0.112058039622255   1.0000000
N2   N   0.664795790216687   0.477629677175337   0.099912866017767   1.0000000
N2   N   0.670281938131801   0.624508016594113   0.093162987496846   1.0000000
N2   N   0.670361215727503   0.766742873814295   0.110668410950332   1.0000000
N2   N   0.810942881754862   0.907251595506601   0.114835263677030   1.0000000
N2   N   0.809461606379806   0.049022999444681   0.114591274709319   1.0000000
N2   N   0.808889584694256   0.191570007074866   0.111825125328501   1.0000000
N2   N   0.808615351657032   0.334355437703273   0.109904546077502   1.0000000
N2   N   0.808585632299653   0.477118563349748   0.108795736964204   1.0000000
N2   N   0.810097255869529   0.620262741579985   0.103581109911559   1.0000000
N2   N   0.811348765655524   0.764305676282959   0.110991130845868   1.0000000


