data_1
_audit_creation_method   'vasp2cif'
_cell_length_a    14.93631414619966
_cell_length_b    14.936314146199727
_cell_length_c    13.341276283792837
_cell_angle_alpha    90.0
_cell_angle_beta    90.0
_cell_angle_gamma    119.99999999999984

_symmetry_space_group_name_H-M    'P 1'
loop_
_atom_site_label
_atom_site_type_symbol
_atom_site_fract_x
_atom_site_fract_y
_atom_site_fract_z
_atom_site_occupancy
Ge2   Ge   0.555555555555557   0.444444444444443   0.375000000000000   1.0000000
N2   N   0.111078162544972   0.055548743585370   0.127293287230035   1.0000000
N2   N   0.611234300542399   0.555801934417421   0.123965462935348   1.0000000
N2   N   0.444461451782056   0.055573046042973   0.127357696591014   1.0000000
N2   N   0.944426953957164   0.555538548217971   0.127357696591014   1.0000000
N2   N   0.777798593029598   0.055565963181474   0.127088145091306   1.0000000
N2   N   0.111105482069111   0.722219407701472   0.622776467864075   1.0000000
N2   N   0.444461451782056   0.722221739072483   0.622642303408841   1.0000000
N2   N   0.277690652707329   0.222185369484568   0.623329148859115   1.0000000
N2   N   0.777814630515504   0.722309347292686   0.623329148859115   1.0000000
N2   N   0.611161383443840   0.222185369484568   0.623329148859115   1.0000000
N2   N   0.944434036818827   0.222201406970382   0.622911854908458   1.0000000
N2   N   0.277780592298759   0.722219407701472   0.127223532135574   1.0000000
N2   N   0.111036962129899   0.222185147731628   0.127075275510812   1.0000000
N2   N   0.444456565445304   0.222246464224427   0.126607608354897   1.0000000
N2   N   0.611161383443840   0.722309347292686   0.126670851140669   1.0000000
N2   N   0.944426953957164   0.722221739072483   0.127357696591015   1.0000000
N2   N   0.777814852268128   0.222185147731628   0.127075275510812   1.0000000
N2   N   0.111105327822442   0.888894672177777   0.622733655046570   1.0000000
N2   N   0.444456011021699   0.888894672177777   0.622733655046570   1.0000000
N2   N   0.277690652707329   0.388838616556113   0.623329148859115   1.0000000
N2   N   0.611234300542399   0.388765699457954   0.626034537064262   1.0000000
N2   N   0.777814852268126   0.888963037869961   0.622924724488917   1.0000000
N2   N   0.944451256414900   0.388862752292976   0.622706712769868   1.0000000
N2   N   0.111078162544968   0.388862752292976   0.127293287230035   1.0000000
N2   N   0.277780592298759   0.888894517930846   0.127223532135574   1.0000000
N2   N   0.611137247707028   0.888921837455019   0.127293287230035   1.0000000
N2   N   0.444198065582471   0.388765699457954   0.123965462935348   1.0000000
N2   N   0.944451256414900   0.888921837455019   0.127293287230035   1.0000000
N2   N   0.777814630515504   0.388838616556113   0.126670851140680   1.0000000
N2   N   0.277778260927664   0.555538548217971   0.622642303408841   1.0000000
N2   N   0.111078162544967   0.055548743585370   0.622706712769868   1.0000000
N2   N   0.611234300542399   0.555801934417421   0.626034537064262   1.0000000
N2   N   0.444461451782056   0.055573046042973   0.622642303408841   1.0000000
N2   N   0.944426953957164   0.555538548217971   0.622642303408841   1.0000000
N2   N   0.111105327822442   0.555543988978387   0.127266344953470   1.0000000
N2   N   0.777798593029598   0.055565963181474   0.622911854908465   1.0000000
N2   N   0.277778260927664   0.055573046042973   0.127357696591015   1.0000000
N2   N   0.444456565445304   0.555543434554525   0.126607608354898   1.0000000
N2   N   0.777753535776057   0.555543434554525   0.126607608354899   1.0000000
N2   N   0.611137247707028   0.055548743585370   0.127293287230035   1.0000000
N2   N   0.444456565445304   0.555543434554523   0.623392391645388   1.0000000
N2   N   0.944434036818827   0.055565963181474   0.127088145091304   1.0000000
N2   N   0.277780592298759   0.722219407701472   0.622776467864075   1.0000000
N2   N   0.111036962129899   0.222185147731628   0.622924724488917   1.0000000
N2   N   0.444456565445304   0.222246464224427   0.623392391645388   1.0000000
N2   N   0.611161383443840   0.722309347292686   0.623329148859115   1.0000000
N2   N   0.944426953957164   0.722221739072483   0.622642303408841   1.0000000
N2   N   0.777814852268126   0.222185147731628   0.622924724488917   1.0000000
N2   N   0.111105482069115   0.722219407701472   0.127223532135574   1.0000000
N2   N   0.444461451782056   0.722221739072487   0.127357696591014   1.0000000
N2   N   0.277690652707329   0.222185369484568   0.126670851140669   1.0000000
N2   N   0.777814630515504   0.722309347292686   0.126670851140680   1.0000000
N2   N   0.611161383443840   0.222185369484568   0.126670851140680   1.0000000
N2   N   0.944434036818827   0.222201406970382   0.127088145091306   1.0000000
N2   N   0.111078162544972   0.388862752292976   0.622706712769868   1.0000000
N2   N   0.277780592298759   0.888894517930846   0.622776467864075   1.0000000
N2   N   0.611137247707028   0.888921837455019   0.622706712769868   1.0000000
N2   N   0.444198065582470   0.388765699457954   0.626034537064262   1.0000000
N2   N   0.944451256414900   0.888921837455019   0.622706712769868   1.0000000
N2   N   0.111105327822442   0.888894672177777   0.127266344953470   1.0000000
N2   N   0.777814630515504   0.388838616556113   0.623329148859115   1.0000000
N2   N   0.444456011021707   0.888894672177777   0.127266344953470   1.0000000
N2   N   0.277690652707329   0.388838616556113   0.126670851140680   1.0000000
N2   N   0.277778260927664   0.555538548217971   0.127357696591014   1.0000000
N2   N   0.611234300542399   0.388765699457954   0.123965462935350   1.0000000
N2   N   0.777814852268128   0.888963037869961   0.127075275510812   1.0000000
N2   N   0.944451256414900   0.388862752292976   0.127293287230035   1.0000000
N2   N   0.111105327822442   0.555543988978387   0.622733655046570   1.0000000
N2   N   0.277778260927664   0.055573046042973   0.622642303408841   1.0000000
N2   N   0.777753535776057   0.555543434554525   0.623392391645388   1.0000000
N2   N   0.611137247707028   0.055548743585370   0.622706712769868   1.0000000
N2   N   0.944434036818827   0.055565963181474   0.622911854908465   1.0000000
N2   N   0.054343841868887   0.110285997261601   0.375000000000000   1.0000000
N2   N   0.555704934121022   0.621593240530210   0.375000000000000   1.0000000
N2   N   0.387514298875875   0.108361931085178   0.375000000000000   1.0000000
N2   N   0.891638068914908   0.612485701124081   0.375000000000000   1.0000000
N2   N   0.722608822059672   0.110285997261600   0.375000000000000   1.0000000
N2   N   0.055570244868638   0.777782059607505   0.875000000000000   1.0000000
N2   N   0.388878481405151   0.777782059607505   0.875000000000000   1.0000000
N2   N   0.222227955434761   0.277780644384145   0.875000000000000   1.0000000
N2   N   0.722219355615821   0.777772044565046   0.875000000000000   1.0000000
N2   N   0.555538656614682   0.277756033942868   0.875000000000000   1.0000000
N2   N   0.888892443903384   0.277787041996549   0.875000000000000   1.0000000
N2   N   0.222222222222221   0.777777777777779   0.375000000000000   1.0000000
N2   N   0.054343841868887   0.277391177940629   0.375000000000000   1.0000000
N2   N   0.378406759470026   0.267445026924547   0.375000000000000   1.0000000
N2   N   0.555066280178469   0.781932083557348   0.375000000000000   1.0000000
N2   N   0.893532470045035   0.781932083557348   0.375000000000000   1.0000000
N2   N   0.724183783368470   0.275816216631712   0.375000000000000   1.0000000
N2   N   0.055561963862738   0.944438036137145   0.875000000000000   1.0000000
N2   N   0.388878481405151   0.944429755131141   0.875000000000000   1.0000000
N2   N   0.222220714311925   0.444458123612454   0.875000000000000   1.0000000
N2   N   0.555555555555557   0.444444444444443   0.875000000000000   1.0000000
N2   N   0.722212958003308   0.944438735240502   0.875000000000000   1.0000000
N2   N   0.888904075967326   0.444458123612454   0.875000000000000   1.0000000
N2   N   0.055792520825581   0.444918374984521   0.375000000000000   1.0000000
N2   N   0.221796255961980   0.943284923876657   0.375000000000000   1.0000000
N2   N   0.555081625015377   0.944207479174461   0.375000000000000   1.0000000
N2   N   0.378406759470026   0.444295065878767   0.375000000000000   1.0000000
N2   N   0.889714002738147   0.945656158131127   0.375000000000000   1.0000000
N2   N   0.732554973075705   0.444295065878767   0.375000000000000   1.0000000
N2   N   0.222217940392830   0.611121518594914   0.875000000000000   1.0000000
N2   N   0.055561264759605   0.111107556096295   0.875000000000000   1.0000000
N2   N   0.555538656614682   0.611115956005114   0.875000000000000   1.0000000
N2   N   0.388874390921926   0.111082115177149   0.875000000000000   1.0000000
N2   N   0.888917884822806   0.611125609078335   0.875000000000000   1.0000000
N2   N   0.056715076123459   0.611844665418746   0.375000000000000   1.0000000
N2   N   0.722212958003308   0.111107556096295   0.875000000000000   1.0000000
N2   N   0.218067916442802   0.106467529954581   0.375000000000000   1.0000000
N2   N   0.387514298875875   0.612485701124081   0.375000000000000   1.0000000
N2   N   0.732554973075249   0.621593240530210   0.375000000000000   1.0000000
N2   N   0.555066280178469   0.106467529954584   0.375000000000000   1.0000000
N2   N   0.388874390921926   0.611125609078335   0.875000000000000   1.0000000
N2   N   0.888888888888886   0.111111111111114   0.375000000000000   1.0000000
N2   N   0.222222222222221   0.777777777777779   0.875000000000000   1.0000000
N2   N   0.055561264759605   0.277787041996584   0.875000000000000   1.0000000
N2   N   0.388884043994588   0.277756033942868   0.875000000000000   1.0000000
N2   N   0.555541876387875   0.777779285687787   0.875000000000000   1.0000000
N2   N   0.888904075967326   0.777779285687787   0.875000000000000   1.0000000
N2   N   0.722219355615826   0.277780644384145   0.875000000000000   1.0000000
N2   N   0.056715076123465   0.778203744038001   0.375000000000000   1.0000000
N2   N   0.388155334581118   0.778203744038001   0.375000000000000   1.0000000
N2   N   0.218299099929820   0.275816216631712   0.375000000000000   1.0000000
N2   N   0.724183783368470   0.781700900069913   0.375000000000000   1.0000000
N2   N   0.555704934121022   0.267445026924547   0.375000000000000   1.0000000
N2   N   0.889714002738147   0.277391177940629   0.375000000000000   1.0000000
N2   N   0.055561963862739   0.444457261058769   0.875000000000000   1.0000000
N2   N   0.222217940392830   0.944429755131141   0.875000000000000   1.0000000
N2   N   0.555542738941568   0.944438036137145   0.875000000000000   1.0000000
N2   N   0.388884043994588   0.444461343384998   0.875000000000000   1.0000000
N2   N   0.888892443903384   0.944438735240502   0.875000000000000   1.0000000
N2   N   0.055792520825581   0.944207479174461   0.375000000000000   1.0000000
N2   N   0.722243966057434   0.444461343384998   0.875000000000000   1.0000000
N2   N   0.388155334581118   0.943284923876657   0.375000000000000   1.0000000
N2   N   0.218067916442802   0.444933719821511   0.375000000000000   1.0000000
N2   N   0.221796255961983   0.611844665418746   0.375000000000000   1.0000000
N2   N   0.722608822059672   0.945656158131127   0.375000000000000   1.0000000
N2   N   0.893532470045035   0.444933719821511   0.375000000000000   1.0000000
N2   N   0.055570244868638   0.611121518594914   0.875000000000000   1.0000000
N2   N   0.222220714311925   0.111095924032747   0.875000000000000   1.0000000
N2   N   0.722243966057434   0.611115956005114   0.875000000000000   1.0000000
N2   N   0.555541876387875   0.111095924032774   0.875000000000000   1.0000000
N2   N   0.888888888888886   0.111111111111114   0.875000000000000   1.0000000
B2   B   0.108963227248405   0.053802024538289   0.375000000000000   1.0000000
B2   B   0.623468150639876   0.580269634612706   0.375000000000000   1.0000000
B2   B   0.443909600225613   0.053819673999490   0.375000000000000   1.0000000
B2   B   0.946180326000484   0.556090399774330   0.375000000000000   1.0000000
B2   B   0.778238330925400   0.055785832129342   0.375000000000000   1.0000000
B2   B   0.111104336666294   0.722218834999656   0.875000000000000   1.0000000
B2   B   0.444439360194596   0.722189035627163   0.875000000000000   1.0000000
B2   B   0.277871611253689   0.222276635479581   0.875000000000000   1.0000000
B2   B   0.777723364520126   0.722128388746083   0.875000000000000   1.0000000
B2   B   0.611071690892632   0.222276635479561   0.875000000000000   1.0000000
B2   B   0.944454333002673   0.222241999339260   0.875000000000000   1.0000000
B2   B   0.277490435016960   0.722509564983161   0.375000000000000   1.0000000
B2   B   0.108904898480549   0.221119115906983   0.375000000000000   1.0000000
B2   B   0.443124010045045   0.219581353423103   0.375000000000000   1.0000000
B2   B   0.611969283966089   0.729376784959410   0.375000000000000   1.0000000
B2   B   0.946180326000484   0.723423259559433   0.375000000000000   1.0000000
B2   B   0.778880884092989   0.221119115906983   0.375000000000000   1.0000000
B2   B   0.111117495000544   0.888882504999557   0.875000000000000   1.0000000
B2   B   0.444431676665476   0.888882504999557   0.875000000000000   1.0000000
B2   B   0.277871611253689   0.388928309107386   0.875000000000000   1.0000000
B2   B   0.611064193296466   0.388935806703232   0.875000000000000   1.0000000
B2   B   0.777745734449828   0.888824802233137   0.875000000000000   1.0000000
B2   B   0.944432270074927   0.388915951567017   0.875000000000000   1.0000000
B2   B   0.108963227248403   0.388494536043457   0.375000000000000   1.0000000
B2   B   0.277490435016960   0.888314203367248   0.375000000000000   1.0000000
B2   B   0.611505463956642   0.891036772751635   0.375000000000000   1.0000000
B2   B   0.419730365387314   0.376531849360311   0.375000000000000   1.0000000
B2   B   0.946197975461733   0.891036772751668   0.375000000000000   1.0000000
B2   B   0.784074167659802   0.388030716033964   0.375000000000000   1.0000000
B2   B   0.277810964372640   0.555560639805546   0.875000000000000   1.0000000
B2   B   0.111150348158712   0.055567729925065   0.875000000000000   1.0000000
B2   B   0.611064193296466   0.555461719926865   0.875000000000000   1.0000000
B2   B   0.444439360194596   0.055583657900561   0.875000000000000   1.0000000
B2   B   0.944416342099555   0.555560639805546   0.875000000000000   1.0000000
B2   B   0.111295361596901   0.555924056527326   0.375000000000000   1.0000000
B2   B   0.777758000660868   0.055545666997060   0.875000000000000   1.0000000
B2   B   0.276576740440523   0.053819673999490   0.375000000000000   1.0000000
B2   B   0.443124010045045   0.556875989955119   0.375000000000000   1.0000000
B2   B   0.780418646576575   0.556875989955119   0.375000000000000   1.0000000
B2   B   0.611505463956642   0.053802024538289   0.375000000000000   1.0000000
B2   B   0.444474374717080   0.555525625282824   0.875000000000000   1.0000000
B2   B   0.944214167870718   0.055785832129342   0.375000000000000   1.0000000
B2   B   0.277781165000198   0.722218834999656   0.875000000000000   1.0000000
B2   B   0.111175197766864   0.222254265550089   0.875000000000000   1.0000000
B2   B   0.444474374717076   0.222282082767498   0.875000000000000   1.0000000
B2   B   0.611071690892632   0.722128388746083   0.875000000000000   1.0000000
B2   B   0.944416342099555   0.722189035627163   0.875000000000000   1.0000000
B2   B   0.777745734449828   0.222254265550089   0.875000000000000   1.0000000
B2   B   0.111685796632848   0.722509564983161   0.375000000000000   1.0000000
B2   B   0.443909600225613   0.723423259559433   0.375000000000000   1.0000000
B2   B   0.270623215040793   0.215925832340067   0.375000000000000   1.0000000
B2   B   0.784074167659802   0.729376784959410   0.375000000000000   1.0000000
B2   B   0.611969283966089   0.215925832340067   0.375000000000000   1.0000000
B2   B   0.944214167870718   0.221761669074642   0.375000000000000   1.0000000
B2   B   0.111150348158711   0.388915951567017   0.875000000000000   1.0000000
B2   B   0.277781165000198   0.888895663333724   0.875000000000000   1.0000000
B2   B   0.611084048433167   0.888849651841112   0.875000000000000   1.0000000
B2   B   0.444538280073204   0.388935806703232   0.875000000000000   1.0000000
B2   B   0.944432270074927   0.888849651841112   0.875000000000000   1.0000000
B2   B   0.111295361596902   0.888704638403157   0.375000000000000   1.0000000
B2   B   0.777723364520126   0.388928309107386   0.875000000000000   1.0000000
B2   B   0.444075943472859   0.888704638403157   0.375000000000000   1.0000000
B2   B   0.270623215040793   0.388030716033964   0.375000000000000   1.0000000
B2   B   0.276576740440523   0.556090399774330   0.375000000000000   1.0000000
B2   B   0.623468150639876   0.376531849360311   0.375000000000000   1.0000000
B2   B   0.778880884092989   0.891095101519544   0.375000000000000   1.0000000
B2   B   0.946197975461733   0.388494536043457   0.375000000000000   1.0000000
B2   B   0.111117495000544   0.555568323334287   0.875000000000000   1.0000000
B2   B   0.277810964372640   0.055583657900562   0.875000000000000   1.0000000
B2   B   0.777717917232512   0.555525625282824   0.875000000000000   1.0000000
B2   B   0.611084048433167   0.055567729925065   0.875000000000000   1.0000000
B2   B   0.944454333002673   0.055545666997060   0.875000000000000   1.0000000
B2   B   0.055563343489254   0.111136038356857   0.127338589462778   1.0000000
B2   B   0.555699338345705   0.610929543291452   0.126260158608781   1.0000000
B2   B   0.389030984736542   0.111395302806514   0.127472298769611   1.0000000
B2   B   0.888604697193678   0.610969015263609   0.127472298769611   1.0000000
B2   B   0.722239361534134   0.111136038356857   0.127338589462722   1.0000000
B2   B   0.055458088133585   0.777742009651665   0.622555966481348   1.0000000
B2   B   0.388950588184602   0.777742009651665   0.622555966481348   1.0000000
B2   B   0.222290593429707   0.277811963381580   0.622938041812501   1.0000000
B2   B   0.722188036618566   0.777709406570175   0.622938041812501   1.0000000
B2   B   0.555699338345705   0.278103128387359   0.623739841391274   1.0000000
B2   B   0.888863961643140   0.277760638465795   0.622661410537252   1.0000000
B2   B   0.222222222222221   0.777777777777779   0.127333232012296   1.0000000
B2   B   0.055563343489252   0.277760638465795   0.127338589462723   1.0000000
B2   B   0.389070456708225   0.278103128387359   0.126260158608782   1.0000000
B2   B   0.555618961905407   0.777706897116938   0.127383600713562   1.0000000
B2   B   0.888754601878116   0.777706897116938   0.127383600713562   1.0000000
B2   B   0.722188036618566   0.277811963381580   0.127061958187586   1.0000000
B2   B   0.055532806904332   0.944467193096001   0.622533755339027   1.0000000
B2   B   0.388950588184602   0.944541911866409   0.622555966481348   1.0000000
B2   B   0.222293102883072   0.444381038094030   0.622616399286505   1.0000000
B2   B   0.555555555555557   0.444444444444443   0.621701553876253   1.0000000
B2   B   0.722239361534134   0.944436656510919   0.622661410537252   1.0000000
B2   B   0.888754601878116   0.444381038094030   0.622616399286505   1.0000000
B2   B   0.055532806904332   0.444398947142028   0.127466244660808   1.0000000
B2   B   0.222257990348453   0.944541911866409   0.127444033518733   1.0000000
B2   B   0.555601052857799   0.944467193096001   0.127466244660808   1.0000000
B2   B   0.389070456708225   0.444300661654180   0.126260158608781   1.0000000
B2   B   0.888863961643140   0.944436656510919   0.127338589462787   1.0000000
B2   B   0.721896871613019   0.444300661654180   0.126260158608780   1.0000000
B2   B   0.222257990348453   0.611049411815307   0.622555966481348   1.0000000
B2   B   0.055563343489254   0.111136038356857   0.622661410537252   1.0000000
B2   B   0.555699338345705   0.610929543291452   0.623739841391274   1.0000000
B2   B   0.389030984736490   0.111395302806514   0.622527701230496   1.0000000
B2   B   0.888604697193574   0.610969015263609   0.622527701230494   1.0000000
B2   B   0.055458088133584   0.611049411815307   0.127444033518733   1.0000000
B2   B   0.722239361534134   0.111136038356857   0.622661410537252   1.0000000
B2   B   0.222293102883072   0.111245398122209   0.127383600713562   1.0000000
B2   B   0.389030984736490   0.610969015263609   0.127472298769611   1.0000000
B2   B   0.721896871613019   0.610929543291452   0.126260158608778   1.0000000
B2   B   0.555618961905407   0.111245398122209   0.127383600713562   1.0000000
B2   B   0.389030984736490   0.610969015263609   0.622527701230494   1.0000000
B2   B   0.888888888888886   0.111111111111114   0.127232484718517   1.0000000
B2   B   0.222222222222221   0.777777777777779   0.622666767987561   1.0000000
B2   B   0.055563343489254   0.277760638465793   0.622661410537252   1.0000000
B2   B   0.389070456708225   0.278103128387359   0.623739841391274   1.0000000
B2   B   0.555618961905407   0.777706897116938   0.622616399286505   1.0000000
B2   B   0.888754601878116   0.777706897116938   0.622616399286505   1.0000000
B2   B   0.722188036618566   0.277811963381580   0.622938041812501   1.0000000
B2   B   0.055458088133584   0.777742009651665   0.127444033518733   1.0000000
B2   B   0.388950588184602   0.777742009651665   0.127444033518733   1.0000000
B2   B   0.222290593429707   0.277811963381580   0.127061958187587   1.0000000
B2   B   0.722188036618566   0.777709406570175   0.127061958187587   1.0000000
B2   B   0.555699338345705   0.278103128387359   0.126260158608778   1.0000000
B2   B   0.888863961643140   0.277760638465795   0.127338589462778   1.0000000
B2   B   0.055532806904332   0.444398947142033   0.622533755339027   1.0000000
B2   B   0.222257990348453   0.944541911866409   0.622555966481348   1.0000000
B2   B   0.555601052857799   0.944467193096001   0.622533755339027   1.0000000
B2   B   0.389070456708225   0.444300661654180   0.623739841391274   1.0000000
B2   B   0.888863961643140   0.944436656510919   0.622661410537252   1.0000000
B2   B   0.055532806904332   0.944467193096001   0.127466244660808   1.0000000
B2   B   0.721896871613019   0.444300661654180   0.623739841391274   1.0000000
B2   B   0.388950588184602   0.944541911866409   0.127444033518733   1.0000000
B2   B   0.222293102883072   0.444381038094030   0.127383600713560   1.0000000
B2   B   0.222257990348453   0.611049411815307   0.127444033518733   1.0000000
B2   B   0.555555555555557   0.444444444444443   0.128298446123635   1.0000000
B2   B   0.722239361534134   0.944436656510919   0.127338589462723   1.0000000
B2   B   0.888754601878116   0.444381038094030   0.127383600713559   1.0000000
B2   B   0.055458088133584   0.611049411815307   0.622555966481348   1.0000000
B2   B   0.222293102883072   0.111245398122209   0.622616399286505   1.0000000
B2   B   0.721896871613019   0.610929543291452   0.623739841391274   1.0000000
B2   B   0.555618961905407   0.111245398122209   0.622616399286505   1.0000000
B2   B   0.888888888888886   0.111111111111114   0.622767515281176   1.0000000


