data_1
_audit_creation_method   'vasp2cif'
_cell_length_a    14.93631414619966
_cell_length_b    14.936314146199727
_cell_length_c    13.341276283792837
_cell_angle_alpha    90.0
_cell_angle_beta    90.0
_cell_angle_gamma    119.99999999999984

_symmetry_space_group_name_H-M    'P 1'
loop_
_atom_site_label
_atom_site_type_symbol
_atom_site_fract_x
_atom_site_fract_y
_atom_site_fract_z
_atom_site_occupancy
C2   C   0.555555555555557   0.444444444444443   0.375000000000000   1.0000000
N2   N   0.111112491201784   0.055545177993504   0.125111152883347   1.0000000
N2   N   0.611116323676375   0.555565980686079   0.125744842623180   1.0000000
N2   N   0.444437868222464   0.055555993116226   0.125189036310163   1.0000000
N2   N   0.944444006883775   0.555562131777537   0.125189036310163   1.0000000
N2   N   0.777768175614799   0.055550754474067   0.125113052447716   1.0000000
N2   N   0.111114326502818   0.722223829918073   0.624878085630346   1.0000000
N2   N   0.444437868222464   0.722215208439573   0.624810963689837   1.0000000
N2   N   0.277774469863010   0.222212008634494   0.624807506247840   1.0000000
N2   N   0.777787991365506   0.722225530136989   0.624807506247840   1.0000000
N2   N   0.611104205438155   0.222212008634494   0.624807506247840   1.0000000
N2   N   0.944449245525933   0.222231824385201   0.624886947552284   1.0000000
N2   N   0.277776170081927   0.722223829918073   0.125121914369654   1.0000000
N2   N   0.111122886064626   0.222228109698977   0.125137876893108   1.0000000
N2   N   0.444457572370972   0.222248478075281   0.125456924900545   1.0000000
N2   N   0.611104205438155   0.722225530136989   0.125192493752160   1.0000000
N2   N   0.944444006883775   0.722215208439573   0.125189036310163   1.0000000
N2   N   0.777771890301023   0.222228109698977   0.125137876893108   1.0000000
N2   N   0.111118117529668   0.888881882470332   0.624864180078542   1.0000000
N2   N   0.444430431607336   0.888881882470332   0.624864180078542   1.0000000
N2   N   0.277774469863010   0.388895794561844   0.624807506247840   1.0000000
N2   N   0.611116323676375   0.388883676323625   0.624255157376820   1.0000000
N2   N   0.777771890301023   0.888877113935373   0.624862123106892   1.0000000
N2   N   0.944454822006496   0.388900646541608   0.624888847116653   1.0000000
N2   N   0.111112491201784   0.388900646541608   0.125111152883347   1.0000000
N2   N   0.277776170081927   0.888885673497182   0.125121914369654   1.0000000
N2   N   0.611099353458392   0.888887508798216   0.125111152883347   1.0000000
N2   N   0.444434019313921   0.388883676323625   0.125744842623180   1.0000000
N2   N   0.944454822006496   0.888887508798216   0.125111152883347   1.0000000
N2   N   0.777787991365506   0.388895794561844   0.125192493752160   1.0000000
N2   N   0.277784791560427   0.555562131777537   0.624810963689837   1.0000000
N2   N   0.111112491201784   0.055545177993504   0.624888847116653   1.0000000
N2   N   0.611116323676375   0.555565980686079   0.624255157376820   1.0000000
N2   N   0.444437868222464   0.055555993116226   0.624810963689837   1.0000000
N2   N   0.944444006883775   0.555562131777537   0.624810963689837   1.0000000
N2   N   0.111118117529668   0.555569568392664   0.125135819921458   1.0000000
N2   N   0.777768175614799   0.055550754474067   0.624886947552284   1.0000000
N2   N   0.277784791560427   0.055555993116226   0.125189036310163   1.0000000
N2   N   0.444457572370972   0.555542427629027   0.125456924900545   1.0000000
N2   N   0.777751521924719   0.555542427629027   0.125456924900545   1.0000000
N2   N   0.611099353458392   0.055545177993504   0.125111152883347   1.0000000
N2   N   0.444457572370972   0.555542427629027   0.624543075099456   1.0000000
N2   N   0.944449245525933   0.055550754474067   0.125113052447716   1.0000000
N2   N   0.277776170081927   0.722223829918073   0.624878085630346   1.0000000
N2   N   0.111122886064626   0.222228109698977   0.624862123106892   1.0000000
N2   N   0.444457572370972   0.222248478075281   0.624543075099456   1.0000000
N2   N   0.611104205438155   0.722225530136989   0.624807506247840   1.0000000
N2   N   0.944444006883775   0.722215208439573   0.624810963689837   1.0000000
N2   N   0.777771890301023   0.222228109698977   0.624862123106892   1.0000000
N2   N   0.111114326502818   0.722223829918073   0.125121914369654   1.0000000
N2   N   0.444437868222464   0.722215208439573   0.125189036310163   1.0000000
N2   N   0.277774469863010   0.222212008634494   0.125192493752160   1.0000000
N2   N   0.777787991365506   0.722225530136989   0.125192493752160   1.0000000
N2   N   0.611104205438155   0.222212008634494   0.125192493752160   1.0000000
N2   N   0.944449245525933   0.222231824385201   0.125113052447716   1.0000000
N2   N   0.111112491201784   0.388900646541608   0.624888847116653   1.0000000
N2   N   0.277776170081927   0.888885673497182   0.624878085630346   1.0000000
N2   N   0.611099353458392   0.888887508798216   0.624888847116653   1.0000000
N2   N   0.444434019313921   0.388883676323625   0.624255157376820   1.0000000
N2   N   0.944454822006496   0.888887508798216   0.624888847116653   1.0000000
N2   N   0.111118117529668   0.888881882470332   0.125135819921458   1.0000000
N2   N   0.777787991365506   0.388895794561844   0.624807506247840   1.0000000
N2   N   0.444430431607336   0.888881882470332   0.125135819921458   1.0000000
N2   N   0.277774469863010   0.388895794561844   0.125192493752160   1.0000000
N2   N   0.277784791560427   0.555562131777537   0.125189036310163   1.0000000
N2   N   0.611116323676375   0.388883676323625   0.125744842623180   1.0000000
N2   N   0.777771890301023   0.888877113935373   0.125137876893108   1.0000000
N2   N   0.944454822006496   0.388900646541608   0.125111152883347   1.0000000
N2   N   0.111118117529668   0.555569568392664   0.624864180078542   1.0000000
N2   N   0.277784791560427   0.055555993116226   0.624810963689837   1.0000000
N2   N   0.777751521924719   0.555542427629027   0.624543075099456   1.0000000
N2   N   0.611099353458392   0.055545177993504   0.624888847116653   1.0000000
N2   N   0.944449245525933   0.055550754474067   0.624886947552284   1.0000000
N2   N   0.055244286123822   0.110934447684298   0.375000000000000   1.0000000
N2   N   0.556148152716948   0.613531463017119   0.375000000000000   1.0000000
N2   N   0.388926059008773   0.111185451350889   0.375000000000000   1.0000000
N2   N   0.888814548649111   0.611073940991227   0.375000000000000   1.0000000
N2   N   0.722356828227140   0.110934447684298   0.375000000000000   1.0000000
N2   N   0.055550118208176   0.777777965035025   0.875000000000000   1.0000000
N2   N   0.388894513493514   0.777777965035025   0.875000000000000   1.0000000
N2   N   0.222218831433169   0.277776082383253   0.875000000000000   1.0000000
N2   N   0.722223917616748   0.777781168566831   0.875000000000000   1.0000000
N2   N   0.555557348525408   0.277779042298852   0.875000000000000   1.0000000
N2   N   0.888890949128354   0.277778393353746   0.875000000000000   1.0000000
N2   N   0.222222222222221   0.777777777777779   0.375000000000000   1.0000000
N2   N   0.055244286123822   0.277643171772860   0.375000000000000   1.0000000
N2   N   0.386468536982881   0.275950023033166   0.375000000000000   1.0000000
N2   N   0.555596871763439   0.778786694889792   0.375000000000000   1.0000000
N2   N   0.889856489793017   0.778786694889792   0.375000000000000   1.0000000
N2   N   0.722675442190087   0.277324557809913   0.375000000000000   1.0000000
N2   N   0.055555475403567   0.944444524596433   0.875000000000000   1.0000000
N2   N   0.388894513493514   0.944449881791823   0.875000000000000   1.0000000
N2   N   0.222218506920414   0.444441909786254   0.875000000000000   1.0000000
N2   N   0.555555555555557   0.444444444444443   0.875000000000000   1.0000000
N2   N   0.722221606646253   0.944445889107943   0.875000000000000   1.0000000
N2   N   0.888890069532504   0.444441909786254   0.875000000000000   1.0000000
N2   N   0.055578087573856   0.444489508481040   0.375000000000000   1.0000000
N2   N   0.222220570816927   0.944390061566347   0.375000000000000   1.0000000
N2   N   0.555510491518960   0.944421912426144   0.375000000000000   1.0000000
N2   N   0.386468536982881   0.443851847283051   0.375000000000000   1.0000000
N2   N   0.889065552315702   0.944755713876177   0.375000000000000   1.0000000
N2   N   0.724049976966835   0.443851847283051   0.375000000000000   1.0000000
N2   N   0.222222034964975   0.611105486506487   0.875000000000000   1.0000000
N2   N   0.055554110892057   0.111109050871647   0.875000000000000   1.0000000
N2   N   0.555557348525408   0.611111639559892   0.875000000000000   1.0000000
N2   N   0.388892846347943   0.111119026029228   0.875000000000000   1.0000000
N2   N   0.888880973970772   0.611107153652057   0.875000000000000   1.0000000
N2   N   0.055609938433653   0.611163842583915   0.375000000000000   1.0000000
N2   N   0.722221606646253   0.111109050871647   0.875000000000000   1.0000000
N2   N   0.221213305110209   0.110143510206983   0.375000000000000   1.0000000
N2   N   0.388926059008773   0.611073940991227   0.375000000000000   1.0000000
N2   N   0.724049976966835   0.613531463017119   0.375000000000000   1.0000000
N2   N   0.555596871763439   0.110143510206983   0.375000000000000   1.0000000
N2   N   0.388892846347943   0.611107153652057   0.875000000000000   1.0000000
N2   N   0.888888888888886   0.111111111111114   0.375000000000000   1.0000000
N2   N   0.222222222222221   0.777777777777779   0.875000000000000   1.0000000
N2   N   0.055554110892057   0.277778393353746   0.875000000000000   1.0000000
N2   N   0.388888360440108   0.277779042298852   0.875000000000000   1.0000000
N2   N   0.555558090213747   0.777781493079586   0.875000000000000   1.0000000
N2   N   0.888890069532504   0.777781493079586   0.875000000000000   1.0000000
N2   N   0.722223917616748   0.277776082383252   0.875000000000000   1.0000000
N2   N   0.055609938433653   0.777779429183073   0.375000000000000   1.0000000
N2   N   0.388836157416085   0.777779429183073   0.375000000000000   1.0000000
N2   N   0.221315782286491   0.277324557809913   0.375000000000000   1.0000000
N2   N   0.722675442190087   0.778684217713509   0.375000000000000   1.0000000
N2   N   0.556148152716948   0.275950023033166   0.375000000000000   1.0000000
N2   N   0.889065552315702   0.277643171772860   0.375000000000000   1.0000000
N2   N   0.055555475403567   0.444444284140463   0.875000000000000   1.0000000
N2   N   0.222222034964975   0.944449881791823   0.875000000000000   1.0000000
N2   N   0.555555715859538   0.944444524596433   0.875000000000000   1.0000000
N2   N   0.388888360440108   0.444442651474592   0.875000000000000   1.0000000
N2   N   0.888890949128354   0.944445889107943   0.875000000000000   1.0000000
N2   N   0.055578087573856   0.944421912426144   0.375000000000000   1.0000000
N2   N   0.722220957701148   0.444442651474592   0.875000000000000   1.0000000
N2   N   0.388836157416085   0.944390061566347   0.375000000000000   1.0000000
N2   N   0.221213305110209   0.444403128236561   0.375000000000000   1.0000000
N2   N   0.222220570816927   0.611163842583915   0.375000000000000   1.0000000
N2   N   0.722356828227140   0.944755713876177   0.375000000000000   1.0000000
N2   N   0.889856489793017   0.444403128236561   0.375000000000000   1.0000000
N2   N   0.055550118208176   0.611105486506487   0.875000000000000   1.0000000
N2   N   0.222218506920414   0.111109930467496   0.875000000000000   1.0000000
N2   N   0.722220957701148   0.611111639559892   0.875000000000000   1.0000000
N2   N   0.555558090213747   0.111109930467496   0.875000000000000   1.0000000
N2   N   0.888888888888886   0.111111111111114   0.875000000000000   1.0000000
B2   B   0.110375622347761   0.055068760143044   0.375000000000000   1.0000000
B2   B   0.614847316589701   0.563027966512731   0.375000000000000   1.0000000
B2   B   0.444561067470417   0.055083575136660   0.375000000000000   1.0000000
B2   B   0.944916424863340   0.555438932529584   0.375000000000000   1.0000000
B2   B   0.777984804509287   0.055659068921311   0.375000000000000   1.0000000
B2   B   0.111113582536236   0.722223457934783   0.875000000000000   1.0000000
B2   B   0.444447775750885   0.722242807119557   0.875000000000000   1.0000000
B2   B   0.277726806487387   0.222190851829140   0.875000000000000   1.0000000
B2   B   0.777809148170860   0.722273193512614   0.875000000000000   1.0000000
B2   B   0.611130712008425   0.222190851829140   0.875000000000000   1.0000000
B2   B   0.944439303573723   0.222211940480782   0.875000000000000   1.0000000
B2   B   0.277736151606399   0.722263848393601   0.375000000000000   1.0000000
B2   B   0.110024344574693   0.221678838954011   0.375000000000000   1.0000000
B2   B   0.443970874629418   0.221275082592172   0.375000000000000   1.0000000
B2   B   0.611768927027899   0.724810992178989   0.375000000000000   1.0000000
B2   B   0.944916424863340   0.722810825667093   0.375000000000000   1.0000000
B2   B   0.778321161045989   0.221678838954011   0.375000000000000   1.0000000
B2   B   0.111108353036580   0.888891646963420   0.875000000000000   1.0000000
B2   B   0.444449960593511   0.888891646963420   0.875000000000000   1.0000000
B2   B   0.277726806487387   0.388869287991575   0.875000000000000   1.0000000
B2   B   0.611140783203199   0.388859216796801   0.875000000000000   1.0000000
B2   B   0.777796201636642   0.888925736606612   0.875000000000000   1.0000000
B2   B   0.944450508078460   0.388871641729079   0.875000000000000   1.0000000
B2   B   0.110375622347761   0.388640195538046   0.375000000000000   1.0000000
B2   B   0.277736151606399   0.888805636546127   0.375000000000000   1.0000000
B2   B   0.611359804461954   0.889624377652239   0.375000000000000   1.0000000
B2   B   0.436972033487269   0.385152683410299   0.375000000000000   1.0000000
B2   B   0.944931239856956   0.889624377652239   0.375000000000000   1.0000000
B2   B   0.779708731817761   0.388231072972101   0.375000000000000   1.0000000
B2   B   0.277757192880444   0.555552224249116   0.875000000000000   1.0000000
B2   B   0.111087800317290   0.055549491921540   0.875000000000000   1.0000000
B2   B   0.611140783203199   0.555614899739727   0.875000000000000   1.0000000
B2   B   0.444447775750885   0.055538301964664   0.875000000000000   1.0000000
B2   B   0.944461698035336   0.555552224249116   0.875000000000000   1.0000000
B2   B   0.111088791894666   0.555510917122662   0.375000000000000   1.0000000
B2   B   0.777788059519218   0.055560696426277   0.875000000000000   1.0000000
B2   B   0.277189174332907   0.055083575136660   0.375000000000000   1.0000000
B2   B   0.443970874629418   0.556029125370581   0.375000000000000   1.0000000
B2   B   0.778724917407827   0.556029125370581   0.375000000000000   1.0000000
B2   B   0.611359804461954   0.055068760143044   0.375000000000000   1.0000000
B2   B   0.444428619994412   0.555571380005589   0.875000000000000   1.0000000
B2   B   0.944340931078690   0.055659068921311   0.375000000000000   1.0000000
B2   B   0.277776542065217   0.722223457934783   0.875000000000000   1.0000000
B2   B   0.111074263393388   0.222203798363358   0.875000000000000   1.0000000
B2   B   0.444428619994412   0.222190573322159   0.875000000000000   1.0000000
B2   B   0.611130712008425   0.722273193512614   0.875000000000000   1.0000000
B2   B   0.944461698035336   0.722242807119557   0.875000000000000   1.0000000
B2   B   0.777796201636642   0.222203798363358   0.875000000000000   1.0000000
B2   B   0.111194363453873   0.722263848393601   0.375000000000000   1.0000000
B2   B   0.444561067470417   0.722810825667093   0.375000000000000   1.0000000
B2   B   0.275189007821012   0.220291268182238   0.375000000000000   1.0000000
B2   B   0.779708731817761   0.724810992178989   0.375000000000000   1.0000000
B2   B   0.611768927027899   0.220291268182238   0.375000000000000   1.0000000
B2   B   0.944340931078690   0.222015195490714   0.375000000000000   1.0000000
B2   B   0.111087800317290   0.388871641729079   0.875000000000000   1.0000000
B2   B   0.277776542065217   0.888886417463763   0.875000000000000   1.0000000
B2   B   0.611128358270921   0.888912199682709   0.875000000000000   1.0000000
B2   B   0.444385100260274   0.388859216796801   0.875000000000000   1.0000000
B2   B   0.944450508078460   0.888912199682709   0.875000000000000   1.0000000
B2   B   0.111088791894666   0.888911208105334   0.375000000000000   1.0000000
B2   B   0.777809148170860   0.388869287991575   0.875000000000000   1.0000000
B2   B   0.444489082877339   0.888911208105334   0.375000000000000   1.0000000
B2   B   0.275189007821012   0.388231072972101   0.375000000000000   1.0000000
B2   B   0.277189174332907   0.555438932529584   0.375000000000000   1.0000000
B2   B   0.614847316589701   0.385152683410299   0.375000000000000   1.0000000
B2   B   0.778321161045989   0.889975655425307   0.375000000000000   1.0000000
B2   B   0.944931239856956   0.388640195538046   0.375000000000000   1.0000000
B2   B   0.111108353036580   0.555550039406489   0.875000000000000   1.0000000
B2   B   0.277757192880444   0.055538301964664   0.875000000000000   1.0000000
B2   B   0.777809426677841   0.555571380005589   0.875000000000000   1.0000000
B2   B   0.611128358270921   0.055549491921540   0.875000000000000   1.0000000
B2   B   0.944439303573723   0.055560696426277   0.875000000000000   1.0000000
B2   B   0.055524987249816   0.111078501909772   0.124925005315500   1.0000000
B2   B   0.555547523391689   0.611267610282589   0.124994426513823   1.0000000
B2   B   0.388805457929632   0.110944249192606   0.124941551512902   1.0000000
B2   B   0.889055750807394   0.611194542070368   0.124941551512902   1.0000000
B2   B   0.722220181326620   0.111078501909772   0.124925005315500   1.0000000
B2   B   0.055624632441599   0.777804687509330   0.625059210242166   1.0000000
B2   B   0.388846721734395   0.777804687509330   0.625059210242166   1.0000000
B2   B   0.222121058556470   0.277727195944903   0.625139358944983   1.0000000
B2   B   0.722272804055098   0.777878941443530   0.625139358944983   1.0000000
B2   B   0.555547523391689   0.277613246442436   0.625005573486177   1.0000000
B2   B   0.888921498090229   0.277779818673380   0.625074994684500   1.0000000
B2   B   0.222222222222221   0.777777777777779   0.124919225560063   1.0000000
B2   B   0.055524987249816   0.277779818673380   0.124925005315500   1.0000000
B2   B   0.388732389717411   0.277613246442436   0.124994426513823   1.0000000
B2   B   0.555542496496410   0.777860236386578   0.124913824407575   1.0000000
B2   B   0.888984406556833   0.777860236386578   0.124913824407575   1.0000000
B2   B   0.722272804055098   0.277727195944903   0.124860641055017   1.0000000
B2   B   0.055565124900540   0.944434875099460   0.625074322483626   1.0000000
B2   B   0.388846721734395   0.944375367558401   0.625059210242166   1.0000000
B2   B   0.222139763613422   0.444457503503590   0.625086175592425   1.0000000
B2   B   0.555555555555557   0.444444444444443   0.625116107796747   1.0000000
B2   B   0.722220181326620   0.944475012750184   0.625074994684500   1.0000000
B2   B   0.888984406556833   0.444457503503590   0.625086175592425   1.0000000
B2   B   0.055565124900540   0.444463583134408   0.124925677516374   1.0000000
B2   B   0.222195312490670   0.944375367558401   0.124940789757834   1.0000000
B2   B   0.555536416865592   0.944434875099460   0.124925677516374   1.0000000
B2   B   0.388732389717411   0.444452476608311   0.124994426513823   1.0000000
B2   B   0.888921498090229   0.944475012750184   0.124925005315500   1.0000000
B2   B   0.722386753557564   0.444452476608311   0.124994426513823   1.0000000
B2   B   0.222195312490670   0.611153278265606   0.625059210242166   1.0000000
B2   B   0.055524987249816   0.111078501909772   0.625074994684500   1.0000000
B2   B   0.555547523391689   0.611267610282589   0.625005573486177   1.0000000
B2   B   0.388805457929632   0.110944249192606   0.625058448487098   1.0000000
B2   B   0.889055750807394   0.611194542070368   0.625058448487098   1.0000000
B2   B   0.055624632441599   0.611153278265606   0.124940789757834   1.0000000
B2   B   0.722220181326620   0.111078501909772   0.625074994684500   1.0000000
B2   B   0.222139763613422   0.111015593443167   0.124913824407575   1.0000000
B2   B   0.388805457929632   0.611194542070368   0.124941551512902   1.0000000
B2   B   0.722386753557564   0.611267610282589   0.124994426513823   1.0000000
B2   B   0.555542496496410   0.111015593443167   0.124913824407575   1.0000000
B2   B   0.388805457929632   0.611194542070368   0.625058448487098   1.0000000
B2   B   0.888888888888886   0.111111111111114   0.124921662590182   1.0000000
B2   B   0.222222222222221   0.777777777777779   0.625080774439938   1.0000000
B2   B   0.055524987249816   0.277779818673380   0.625074994684500   1.0000000
B2   B   0.388732389717411   0.277613246442436   0.625005573486177   1.0000000
B2   B   0.555542496496410   0.777860236386578   0.625086175592425   1.0000000
B2   B   0.888984406556833   0.777860236386578   0.625086175592425   1.0000000
B2   B   0.722272804055098   0.277727195944903   0.625139358944983   1.0000000
B2   B   0.055624632441599   0.777804687509330   0.124940789757834   1.0000000
B2   B   0.388846721734395   0.777804687509330   0.124940789757834   1.0000000
B2   B   0.222121058556470   0.277727195944903   0.124860641055017   1.0000000
B2   B   0.722272804055098   0.777878941443530   0.124860641055017   1.0000000
B2   B   0.555547523391689   0.277613246442436   0.124994426513823   1.0000000
B2   B   0.888921498090229   0.277779818673380   0.124925005315500   1.0000000
B2   B   0.055565124900540   0.444463583134408   0.625074322483626   1.0000000
B2   B   0.222195312490670   0.944375367558401   0.625059210242166   1.0000000
B2   B   0.555536416865592   0.944434875099460   0.625074322483626   1.0000000
B2   B   0.388732389717411   0.444452476608311   0.625005573486177   1.0000000
B2   B   0.888921498090229   0.944475012750184   0.625074994684500   1.0000000
B2   B   0.055565124900540   0.944434875099460   0.124925677516374   1.0000000
B2   B   0.722386753557564   0.444452476608311   0.625005573486177   1.0000000
B2   B   0.388846721734395   0.944375367558401   0.124940789757834   1.0000000
B2   B   0.222139763613422   0.444457503503590   0.124913824407575   1.0000000
B2   B   0.222195312490670   0.611153278265606   0.124940789757834   1.0000000
B2   B   0.555555555555557   0.444444444444443   0.124883892203253   1.0000000
B2   B   0.722220181326620   0.944475012750184   0.124925005315500   1.0000000
B2   B   0.888984406556833   0.444457503503590   0.124913824407575   1.0000000
B2   B   0.055624632441599   0.611153278265606   0.625059210242166   1.0000000
B2   B   0.222139763613422   0.111015593443167   0.625086175592425   1.0000000
B2   B   0.722386753557564   0.611267610282589   0.625005573486177   1.0000000
B2   B   0.555542496496410   0.111015593443167   0.625086175592425   1.0000000
B2   B   0.888888888888886   0.111111111111114   0.625078337409818   1.0000000


