data_1
_audit_creation_method   'vasp2cif'
_cell_length_a    14.93631414619966
_cell_length_b    14.936314146199727
_cell_length_c    13.341276283792837
_cell_angle_alpha    90.0
_cell_angle_beta    90.0
_cell_angle_gamma    119.99999999999984

_symmetry_space_group_name_H-M    'P 1'
loop_
_atom_site_label
_atom_site_type_symbol
_atom_site_fract_x
_atom_site_fract_y
_atom_site_fract_z
_atom_site_occupancy
Sb2   Sb   0.501376222275890   0.417354777804535   0.375000000000000   1.0000000
N2   N   0.111500862772007   0.055733928171023   0.124821288397995   1.0000000
N2   N   0.611547886956727   0.555845636362134   0.121195093728599   1.0000000
N2   N   0.444852366338713   0.055735395835071   0.124522260647342   1.0000000
N2   N   0.944813233281486   0.555741328142281   0.124965671142928   1.0000000
N2   N   0.778213990531488   0.055773661932401   0.125081334535252   1.0000000
N2   N   0.111488629629909   0.722410981481691   0.624729345740730   1.0000000
N2   N   0.444852366338713   0.722450303837077   0.625477739352929   1.0000000
N2   N   0.278132131836321   0.222374754191208   0.626590053208946   1.0000000
N2   N   0.778170855267911   0.722439074621219   0.626074232020544   1.0000000
N2   N   0.611516608420605   0.222383339212418   0.626420154473115   1.0000000
N2   N   0.944867583539361   0.222435542901107   0.624885896526574   1.0000000
N2   N   0.278177078646919   0.722431141513140   0.125150453522254   1.0000000
N2   N   0.111515979132776   0.222424656233063   0.124576567594789   1.0000000
N2   N   0.444851664322828   0.222391038025850   0.122863490234481   1.0000000
N2   N   0.611516608420605   0.722466602541700   0.123579845526941   1.0000000
N2   N   0.944813233281486   0.722405238472774   0.124965671142928   1.0000000
N2   N   0.778201057201094   0.222419383972638   0.124798434443472   1.0000000
N2   N   0.111500045278563   0.889072095137234   0.624819135390223   1.0000000
N2   N   0.444862224026297   0.889097778679679   0.624867339005690   1.0000000
N2   N   0.278132131836321   0.389090710978455   0.626590053208946   1.0000000
N2   N   0.611547886956727   0.389035583927752   0.628804906271457   1.0000000
N2   N   0.778201057201094   0.889115006561811   0.625201565556664   1.0000000
N2   N   0.944843699245126   0.389091721590441   0.624891443400522   1.0000000
N2   N   0.111500862772007   0.389100267934242   0.124821288397995   1.0000000
N2   N   0.278177078646919   0.889079270467174   0.125150453522254   1.0000000
N2   N   0.611538543705927   0.889118006818051   0.124892818548841   1.0000000
N2   N   0.444730958524681   0.389032145929066   0.122083884255759   1.0000000
N2   N   0.944843699245126   0.889085310988057   0.125108556599344   1.0000000
N2   N   0.778170855267911   0.389065113980190   0.123925767979484   1.0000000
N2   N   0.278176241500616   0.555772124646502   0.625543441762695   1.0000000
N2   N   0.111500862772007   0.055733928171023   0.625178711601948   1.0000000
N2   N   0.611547886956727   0.555845636362134   0.628804906271450   1.0000000
N2   N   0.444852366338713   0.055735395835071   0.625477739352929   1.0000000
N2   N   0.944813233281486   0.555741328142281   0.625034328856973   1.0000000
N2   N   0.111500045278563   0.555761283474601   0.125180864609735   1.0000000
N2   N   0.778213990531488   0.055773661932401   0.624918665464833   1.0000000
N2   N   0.278176241500616   0.055737450187542   0.124456558237171   1.0000000
N2   N   0.444851664322828   0.555793959630164   0.122863490234467   1.0000000
N2   N   0.778140338464364   0.555736835898606   0.123391007067998   1.0000000
N2   N   0.611538543705927   0.055753870221183   0.124892818548841   1.0000000
N2   N   0.444851664322828   0.555793959630164   0.627136509765562   1.0000000
N2   N   0.944867583539361   0.055765373971474   0.125114103473461   1.0000000
N2   N   0.278177078646919   0.722431141513140   0.624849546477861   1.0000000
N2   N   0.111515979132776   0.222424656233063   0.625423432405205   1.0000000
N2   N   0.444851664322828   0.222391038025850   0.627136509765562   1.0000000
N2   N   0.611516608420605   0.722466602541700   0.626420154473108   1.0000000
N2   N   0.944813233281486   0.722405238472774   0.625034328856973   1.0000000
N2   N   0.778201057201094   0.222419383972638   0.625201565556664   1.0000000
N2   N   0.111488629629909   0.722410981481691   0.125270654259207   1.0000000
N2   N   0.444852366338713   0.722450303837077   0.124522260647342   1.0000000
N2   N   0.278132131836321   0.222374754191208   0.123409946791188   1.0000000
N2   N   0.778170855267911   0.722439074621219   0.123925767979484   1.0000000
N2   N   0.611516608420605   0.222383339212418   0.123579845526941   1.0000000
N2   N   0.944867583539361   0.222435542901107   0.125114103473461   1.0000000
N2   N   0.111500862772007   0.389100267934242   0.625178711601948   1.0000000
N2   N   0.278177078646919   0.889079270467174   0.624849546477861   1.0000000
N2   N   0.611538543705927   0.889118006818051   0.625107181451018   1.0000000
N2   N   0.444730958524681   0.389032145929066   0.627916115744283   1.0000000
N2   N   0.944843699245126   0.889085310988057   0.624891443400522   1.0000000
N2   N   0.111500045278563   0.889072095137234   0.125180864609735   1.0000000
N2   N   0.778170855267911   0.389065113980190   0.626074232020537   1.0000000
N2   N   0.444862224026297   0.889097778679679   0.125132660994346   1.0000000
N2   N   0.278132131836321   0.389090710978455   0.123409946791181   1.0000000
N2   N   0.278176241500609   0.555772124646502   0.124456558237171   1.0000000
N2   N   0.611547886956727   0.389035583927752   0.121195093728599   1.0000000
N2   N   0.778201057201094   0.889115006561811   0.124798434443472   1.0000000
N2   N   0.944843699245126   0.389091721590441   0.125108556599344   1.0000000
N2   N   0.111500045278563   0.555761283474601   0.624819135390223   1.0000000
N2   N   0.278176241500616   0.055737450187535   0.625543441762695   1.0000000
N2   N   0.778140338464364   0.555736835898606   0.626608992932101   1.0000000
N2   N   0.611538543705927   0.055753870221183   0.625107181451018   1.0000000
N2   N   0.944867583539361   0.055765373971474   0.624885896526574   1.0000000
N2   N   0.058704413664064   0.112913918741849   0.375000000000000   1.0000000
N2   N   0.555499060055852   0.624510408957604   0.375000000000000   1.0000000
N2   N   0.387032500437613   0.103388366751525   0.375000000000000   1.0000000
N2   N   0.884316512397620   0.608824922865678   0.375000000000000   1.0000000
N2   N   0.724329528758242   0.110828634415783   0.375000000000000   1.0000000
N2   N   0.055386279079131   0.777692862947176   0.875000000000000   1.0000000
N2   N   0.388713615143386   0.777693472006078   0.875000000000000   1.0000000
N2   N   0.222048250909531   0.277690792121454   0.875000000000000   1.0000000
N2   N   0.722051917408120   0.777692769274066   0.875000000000000   1.0000000
N2   N   0.555379027810809   0.277682892533467   0.875000000000000   1.0000000
N2   N   0.888719633337382   0.277694727530701   0.875000000000000   1.0000000
N2   N   0.219443000171346   0.776388166752283   0.375000000000000   1.0000000
N2   N   0.058704413664050   0.279123828255565   0.375000000000000   1.0000000
N2   N   0.389775596935472   0.267709876420812   0.375000000000000   1.0000000
N2   N   0.555634645259908   0.783735871436727   0.375000000000000   1.0000000
N2   N   0.888413318567247   0.778538131714117   0.375000000000000   1.0000000
N2   N   0.723852571066186   0.275071723122674   0.375000000000000   1.0000000
N2   N   0.055382680746287   0.944355718564420   0.875000000000000   1.0000000
N2   N   0.388713615143386   0.944353476470772   0.875000000000000   1.0000000
N2   N   0.222044990266618   0.444360584177564   0.875000000000000   1.0000000
N2   N   0.555380463516823   0.444356898425076   0.875000000000000   1.0000000
N2   N   0.722047698809363   0.944357689415373   0.875000000000000   1.0000000
N2   N   0.888725231467835   0.444362786112550   0.875000000000000   1.0000000
N2   N   0.055646258284414   0.444697312354000   0.375000000000000   1.0000000
N2   N   0.219943673628566   0.941560770152539   0.375000000000000   1.0000000
N2   N   0.555694042559252   0.944513687946283   0.375000000000000   1.0000000
N2   N   0.389775596935472   0.455399053847904   0.375000000000000   1.0000000
N2   N   0.891234599584101   0.946708624606383   0.375000000000000   1.0000000
N2   N   0.720179380709796   0.440089804808402   0.375000000000000   1.0000000
N2   N   0.222046106906119   0.611026945006760   0.875000000000000   1.0000000
N2   N   0.055382093834605   0.111022391560436   0.875000000000000   1.0000000
N2   N   0.555379027810809   0.611029468610628   0.875000000000000   1.0000000
N2   N   0.388712035143319   0.111016641376126   0.875000000000000   1.0000000
N2   N   0.888727960429867   0.611030646881637   0.875000000000000   1.0000000
N2   N   0.052582808086890   0.610024986680829   0.375000000000000   1.0000000
N2   N   0.722047698809363   0.111023342727375   0.875000000000000   1.0000000
N2   N   0.222821634331499   0.109671455610958   0.375000000000000   1.0000000
N2   N   0.387032500437613   0.616977467019432   0.375000000000000   1.0000000
N2   N   0.720179380709796   0.613422909234714   0.375000000000000   1.0000000
N2   N   0.555634645259922   0.105232107156475   0.375000000000000   1.0000000
N2   N   0.388712035143319   0.611028727100443   0.875000000000000   1.0000000
N2   N   0.891917882103447   0.112625607718412   0.375000000000000   1.0000000
N2   N   0.222048568448887   0.777690950891104   0.875000000000000   1.0000000
N2   N   0.055382093834605   0.277693035607626   0.875000000000000   1.0000000
N2   N   0.388714163565065   0.277685187515488   0.875000000000000   1.0000000
N2   N   0.555378461614614   0.777694303583663   0.875000000000000   1.0000000
N2   N   0.888725231467835   0.777695778688834   0.875000000000000   1.0000000
N2   N   0.722051917408120   0.277692481467532   0.875000000000000   1.0000000
N2   N   0.052582808086890   0.775891154739219   0.375000000000000   1.0000000
N2   N   0.387096130669504   0.779064861066588   0.375000000000000   1.0000000
N2   N   0.227101394836444   0.280217364084879   0.375000000000000   1.0000000
N2   N   0.723852571066186   0.782114181276711   0.375000000000000   1.0000000
N2   N   0.555499060055852   0.264321984431393   0.375000000000000   1.0000000
N2   N   0.891234599584101   0.277859308310975   0.375000000000000   1.0000000
N2   N   0.055382680746287   0.444360295515274   0.875000000000000   1.0000000
N2   N   0.222046106906119   0.944352495232595   0.875000000000000   1.0000000
N2   N   0.555378127462330   0.944355730397937   0.875000000000000   1.0000000
N2   N   0.388714163565065   0.444362309382978   0.875000000000000   1.0000000
N2   N   0.888719633337382   0.944358239139987   0.875000000000000   1.0000000
N2   N   0.055646258284414   0.944282279263729   0.375000000000000   1.0000000
N2   N   0.722060964977382   0.444363711284263   0.875000000000000   1.0000000
N2   N   0.387096130669504   0.941364602936260   0.375000000000000   1.0000000
N2   N   0.222821634331499   0.446483512053798   0.375000000000000   1.0000000
N2   N   0.219943673628566   0.611716236809433   0.375000000000000   1.0000000
N2   N   0.724329528758242   0.946834227676049   0.375000000000000   1.0000000
N2   N   0.888413318567247   0.443208520186615   0.375000000000000   1.0000000
N2   N   0.055386279079131   0.611026749465574   0.875000000000000   1.0000000
N2   N   0.222044990266618   0.111017739422355   0.875000000000000   1.0000000
N2   N   0.722060964977382   0.611030587026809   0.875000000000000   1.0000000
N2   N   0.555378461614614   0.111017491364208   0.875000000000000   1.0000000
N2   N   0.888717908454677   0.111025620894053   0.875000000000000   1.0000000
B2   B   0.112308268451577   0.055535226823263   0.375000000000000   1.0000000
B2   B   0.611413823516625   0.573201105088396   0.375000000000000   1.0000000
B2   B   0.444135179968071   0.050725203827984   0.375000000000000   1.0000000
B2   B   0.941511122544990   0.554222319163819   0.375000000000000   1.0000000
B2   B   0.780913860963820   0.057123597148575   0.375000000000000   1.0000000
B2   B   0.110937440548580   0.722135386940930   0.875000000000000   1.0000000
B2   B   0.444263877022219   0.722129332687630   0.875000000000000   1.0000000
B2   B   0.277607458243285   0.222138340332358   0.875000000000000   1.0000000
B2   B   0.777604776203328   0.722130098718225   0.875000000000000   1.0000000
B2   B   0.610929984741850   0.222136986783662   0.875000000000000   1.0000000
B2   B   0.944277864498863   0.222138663134760   0.875000000000000   1.0000000
B2   B   0.275845380981142   0.722351928025562   0.375000000000000   1.0000000
B2   B   0.115530586488063   0.224431959910681   0.375000000000000   1.0000000
B2   B   0.443080100844000   0.212024324643471   0.375000000000000   1.0000000
B2   B   0.613114772439731   0.732465278310464   0.375000000000000   1.0000000
B2   B   0.941511122544990   0.720622136714556   0.375000000000000   1.0000000
B2   B   0.780526558476886   0.221397751521495   0.375000000000000   1.0000000
B2   B   0.110937926207912   0.888804684112443   0.875000000000000   1.0000000
B2   B   0.444266033838085   0.888799683585835   0.875000000000000   1.0000000
B2   B   0.277607458243285   0.388802451244283   0.875000000000000   1.0000000
B2   B   0.610930599678451   0.388802890937541   0.875000000000000   1.0000000
B2   B   0.777606231372850   0.888801421583243   0.875000000000000   1.0000000
B2   B   0.944275934779023   0.388803864179488   0.875000000000000   1.0000000
B2   B   0.112308268451577   0.390106374961728   0.375000000000000   1.0000000
B2   B   0.275845380981142   0.886826786288929   0.375000000000000   1.0000000
B2   B   0.613031549866292   0.892665073305916   0.375000000000000   1.0000000
B2   B   0.945073696426475   0.889768608932869   0.375000000000000   1.0000000
B2   B   0.778054310397615   0.386305083366468   0.375000000000000   1.0000000
B2   B   0.277600651125146   0.555463745277943   0.875000000000000   1.0000000
B2   B   0.110941232489934   0.055472650418759   0.875000000000000   1.0000000
B2   B   0.610930599678451   0.555461042073955   0.875000000000000   1.0000000
B2   B   0.444263877022219   0.055467877667797   0.875000000000000   1.0000000
B2   B   0.944275458945305   0.555471173075045   0.875000000000000   1.0000000
B2   B   0.109169001059406   0.555500243669364   0.375000000000000   1.0000000
B2   B   0.777607100010870   0.055470216672114   0.875000000000000   1.0000000
B2   B   0.276291883101050   0.052036235103899   0.375000000000000   1.0000000
B2   B   0.443080100844000   0.564389109533786   0.375000000000000   1.0000000
B2   B   0.772545662055811   0.552939497694708   0.375000000000000   1.0000000
B2   B   0.613031549866292   0.053699809893676   0.375000000000000   1.0000000
B2   B   0.444265971643170   0.555460595251158   0.875000000000000   1.0000000
B2   B   0.947757767353199   0.057707825310636   0.375000000000000   1.0000000
B2   B   0.277600783084831   0.722132027969256   0.875000000000000   1.0000000
B2   B   0.110945543522395   0.222139438427848   0.875000000000000   1.0000000
B2   B   0.444265971643170   0.222138709725121   0.875000000000000   1.0000000
B2   B   0.610929984741850   0.722126331291409   0.875000000000000   1.0000000
B2   B   0.944275458945305   0.722137619203601   0.875000000000000   1.0000000
B2   B   0.777606231372850   0.222138143123149   0.875000000000000   1.0000000
B2   B   0.108369382087133   0.720851357710273   0.375000000000000   1.0000000
B2   B   0.444135179968071   0.726743309473203   0.375000000000000   1.0000000
B2   B   0.280600258030544   0.221437293322816   0.375000000000000   1.0000000
B2   B   0.778054310397615   0.725082560364831   0.375000000000000   1.0000000
B2   B   0.613114772439731   0.213982827462438   0.375000000000000   1.0000000
B2   B   0.947757767353199   0.223383275375970   0.375000000000000   1.0000000
B2   B   0.110941232489934   0.388801915404504   0.875000000000000   1.0000000
B2   B   0.277600783084831   0.888802088448904   0.875000000000000   1.0000000
B2   B   0.610934238580053   0.888799896849239   0.875000000000000   1.0000000
B2   B   0.444267502167654   0.388800417750531   0.875000000000000   1.0000000
B2   B   0.944275934779023   0.888805403932859   0.875000000000000   1.0000000
B2   B   0.109169001059406   0.887002090723477   0.375000000000000   1.0000000
B2   B   0.777604776203328   0.388808010818446   0.875000000000000   1.0000000
B2   B   0.444168117485772   0.888750725409426   0.375000000000000   1.0000000
B2   B   0.280600258030544   0.392496298041092   0.375000000000000   1.0000000
B2   B   0.276291883101050   0.557588981330572   0.375000000000000   1.0000000
B2   B   0.611413823516625   0.371546051761677   0.375000000000000   1.0000000
B2   B   0.780526558476886   0.892462140288480   0.375000000000000   1.0000000
B2   B   0.945073696426475   0.388638420826984   0.375000000000000   1.0000000
B2   B   0.110937926207912   0.555466575428933   0.875000000000000   1.0000000
B2   B   0.277600651125146   0.055470239180716   0.875000000000000   1.0000000
B2   B   0.777603137248477   0.555468235290872   0.875000000000000   1.0000000
B2   B   0.610934238580053   0.055467675064059   0.875000000000000   1.0000000
B2   B   0.944277864498863   0.055472534697395   0.875000000000000   1.0000000
B2   B   0.055987766245602   0.111331374024740   0.124874120393752   1.0000000
B2   B   0.555953357243021   0.611324217395934   0.122375904419053   1.0000000
B2   B   0.389283953321901   0.111298851424791   0.123958357313149   1.0000000
B2   B   0.889240848715119   0.611287091024261   0.124467274066602   1.0000000
B2   B   0.722654230113963   0.111313486080566   0.124915314108477   1.0000000
B2   B   0.055938126880153   0.777972913075872   0.624822842809424   1.0000000
B2   B   0.389292086311975   0.777987269604053   0.625030378169647   1.0000000
B2   B   0.222635838003513   0.277984585668396   0.626162788302880   1.0000000
B2   B   0.722621642146820   0.778009422472011   0.625991320867346   1.0000000
B2   B   0.555953357243021   0.277962473180331   0.627624095581104   1.0000000
B2   B   0.889317360277937   0.277977098867519   0.624980251951729   1.0000000
B2   B   0.222611911489240   0.777972622411283   0.125210938022229   1.0000000
B2   B   0.055987766245602   0.277989725554135   0.124874120393752   1.0000000
B2   B   0.389194625974949   0.277860038916564   0.122735383192254   1.0000000
B2   B   0.555958914052568   0.778004293057159   0.124320250550789   1.0000000
B2   B   0.889275318255577   0.777986752149655   0.124684398173826   1.0000000
B2   B   0.722621642146820   0.277945553008122   0.124008679132439   1.0000000
B2   B   0.055964958041185   0.944654863197145   0.624918027092549   1.0000000
B2   B   0.389292086311975   0.944638150041179   0.625030378169647   1.0000000
B2   B   0.222616272564475   0.444641038926617   0.625723714398728   1.0000000
B2   B   0.556019329370483   0.444676331351902   0.628164304929689   1.0000000
B2   B   0.722654230113963   0.944674077366691   0.625084685891458   1.0000000
B2   B   0.889275318255577   0.444621899439380   0.625315601826344   1.0000000
B2   B   0.055964958041185   0.444643428177212   0.125081972907460   1.0000000
B2   B   0.222625809400310   0.944649769193291   0.124971600136917   1.0000000
B2   B   0.555978479483152   0.944655906408077   0.124997326110021   1.0000000
B2   B   0.389194625974949   0.444667920391763   0.122735383192261   1.0000000
B2   B   0.889317360277937   0.944673594743555   0.125019748048200   1.0000000
B2   B   0.722575638450962   0.444598615089949   0.122639360263330   1.0000000
B2   B   0.222625809400310   0.611309373540226   0.625028399863112   1.0000000
B2   B   0.055987766245602   0.111331374024740   0.625125879606313   1.0000000
B2   B   0.555953357243021   0.611324217395934   0.627624095581104   1.0000000
B2   B   0.389283953321901   0.111298851424791   0.626041642686936   1.0000000
B2   B   0.889240848715119   0.611287091024261   0.625532725933420   1.0000000
B2   B   0.055938126880153   0.611298547137502   0.125177157190668   1.0000000
B2   B   0.722654230113963   0.111313486080559   0.625084685891458   1.0000000
B2   B   0.222616272564475   0.111308566971172   0.124276285601323   1.0000000
B2   B   0.389283953321901   0.611318435230289   0.123958357313149   1.0000000
B2   B   0.722575638450962   0.611310356694371   0.122639360263330   1.0000000
B2   B   0.555958914052568   0.111287954328951   0.124320250550789   1.0000000
B2   B   0.389283953321901   0.611318435230289   0.626041642686936   1.0000000
B2   B   0.889329383000645   0.111331358166972   0.125104561176250   1.0000000
B2   B   0.222611911489240   0.777972622411283   0.624789061977742   1.0000000
B2   B   0.055987766245602   0.277989725554135   0.625125879606313   1.0000000
B2   B   0.389194625974949   0.277860038916578   0.627264616807563   1.0000000
B2   B   0.555958914052568   0.778004293057159   0.625679749449141   1.0000000
B2   B   0.889275318255577   0.777986752149655   0.625315601826344   1.0000000
B2   B   0.722621642146820   0.277945553008122   0.625991320867346   1.0000000
B2   B   0.055938126880153   0.777972913075872   0.125177157190668   1.0000000
B2   B   0.389292086311975   0.777987269604053   0.124969621830410   1.0000000
B2   B   0.222635838003513   0.277984585668396   0.123837211697077   1.0000000
B2   B   0.722621642146820   0.778009422472011   0.124008679132439   1.0000000
B2   B   0.555953357243021   0.277962473180331   0.122375904419060   1.0000000
B2   B   0.889317360277937   0.277977098867519   0.125019748048200   1.0000000
B2   B   0.055964958041185   0.444643428177212   0.624918027092549   1.0000000
B2   B   0.222625809400310   0.944649769193291   0.625028399863112   1.0000000
B2   B   0.555978479483152   0.944655906408077   0.625002673889972   1.0000000
B2   B   0.389194625974949   0.444667920391735   0.627264616807563   1.0000000
B2   B   0.889317360277937   0.944673594743555   0.624980251951729   1.0000000
B2   B   0.055964958041185   0.944654863197145   0.125081972907460   1.0000000
B2   B   0.722575638450962   0.444598615089949   0.627360639736776   1.0000000
B2   B   0.389292086311975   0.944638150041179   0.124969621830410   1.0000000
B2   B   0.222616272564475   0.444641038926617   0.124276285601323   1.0000000
B2   B   0.222625809400303   0.611309373540226   0.124971600136917   1.0000000
B2   B   0.556019329370483   0.444676331351902   0.121835695070425   1.0000000
B2   B   0.722654230113963   0.944674077366691   0.124915314108477   1.0000000
B2   B   0.889275318255577   0.444621899439380   0.124684398173826   1.0000000
B2   B   0.055938126880153   0.611298547137687   0.624822842809431   1.0000000
B2   B   0.222616272564475   0.111308566971172   0.625723714398728   1.0000000
B2   B   0.722575638450962   0.611310356694371   0.627360639736769   1.0000000
B2   B   0.555958914052568   0.111287954328951   0.625679749449141   1.0000000
B2   B   0.889329383000645   0.111331358166972   0.624895438823864   1.0000000


