data_1
_audit_creation_method   'vasp2cif'
_cell_length_a    17.52789999999977
_cell_length_b    17.52789999999977
_cell_length_c    15.0
_cell_angle_alpha    90.0
_cell_angle_beta    90.0
_cell_angle_gamma    119.99999999999916

_symmetry_space_group_name_H-M    'P 1'
loop_
_atom_site_label
_atom_site_type_symbol
_atom_site_fract_x
_atom_site_fract_y
_atom_site_fract_z
_atom_site_occupancy
B2   B   0.904705144448689   0.952212181231302   0.111022241384400   1.0000000
B2   B   0.904809117735659   0.095192903460337   0.111036336830454   1.0000000
B2   B   0.904809117735659   0.238187520601322   0.111036336830454   1.0000000
B2   B   0.904705144448689   0.381065981099389   0.111022241384400   1.0000000
B2   B   0.904573269181112   0.523874228423441   0.111030903743552   1.0000000
B2   B   0.904745463901062   0.666659240892029   0.111036615665479   1.0000000
B2   B   0.904573269181112   0.809272058640674   0.111030903743552   1.0000000
B2   B   0.047678282729203   0.952323738466800   0.111022050192618   1.0000000
B2   B   0.047789839964701   0.095296876747307   0.111022241384400   1.0000000
B2   B   0.047812998488426   0.238193008185214   0.111026657581484   1.0000000
B2   B   0.047789839964701   0.381065981099389   0.111022241384400   1.0000000
B2   B   0.047678282729203   0.523929273701403   0.111022050192618   1.0000000
B2   B   0.047640529509791   0.666717133585907   0.111028356683963   1.0000000
B2   B   0.047640529509791   0.809498125362883   0.111028356683963   1.0000000
B2   B   0.190503895833120   0.952361491686213   0.111028356683963   1.0000000
B2   B   0.190729962555329   0.095428752014885   0.111030903743552   1.0000000
B2   B   0.190496912278995   0.238252710589577   0.111018212497824   1.0000000
B2   B   0.190496912278995   0.380817219571421   0.111018212497824   1.0000000
B2   B   0.190729962555329   0.523874228423441   0.111030903743552   1.0000000
B2   B   0.190503895833120   0.666717133585907   0.111028356683963   1.0000000
B2   B   0.190476437651000   0.809525583545003   0.111018255531705   1.0000000
B2   B   0.333284887611092   0.952361491686213   0.111028356683963   1.0000000
B2   B   0.333342780304969   0.095256557294934   0.111036615665479   1.0000000
B2   B   0.333401594002540   0.238099745052152   0.111038750481011   1.0000000
B2   B   0.332813997371849   0.380693507626424   0.111036945438492   1.0000000
B2   B   0.333401594002540   0.523874866832390   0.111038750481011   1.0000000
B2   B   0.333342780304969   0.666659240892029   0.111036615665479   1.0000000
B2   B   0.333284887611092   0.809498125362883   0.111028356683963   1.0000000
B2   B   0.476072747495595   0.952323738466800   0.111022050192618   1.0000000
B2   B   0.476127792773557   0.095428752014885   0.111030903743552   1.0000000
B2   B   0.476127154364608   0.238099745052152   0.111038750481011   1.0000000
B2   B   0.474531570149314   0.377634136983632   0.111012956204746   1.0000000
B2   B   0.474531570149314   0.525470451047684   0.111012956204746   1.0000000
B2   B   0.476127154364608   0.666600427194458   0.111038750481011   1.0000000
B2   B   0.476127792773557   0.809272058640674   0.111030903743552   1.0000000
B2   B   0.618936040096615   0.952212181231302   0.111022241384400   1.0000000
B2   B   0.618936040096615   0.095296876747307   0.111022241384400   1.0000000
B2   B   0.619184801624583   0.238252710589577   0.111018212497824   1.0000000
B2   B   0.619308513569579   0.380693507626424   0.111036945438492   1.0000000
B2   B   0.622367884212371   0.525470451047684   0.111012956204746   1.0000000
B2   B   0.619308513569579   0.667188023825150   0.111036945438492   1.0000000
B2   B   0.619184801624583   0.809505108917008   0.111018212497824   1.0000000
B2   B   0.761809013010790   0.952189022707577   0.111026657581484   1.0000000
B2   B   0.761814500594682   0.095192903460337   0.111036336830454   1.0000000
B2   B   0.761809013010790   0.238193008185214   0.111026657581484   1.0000000
B2   B   0.761749310606427   0.380817219571421   0.111018212497824   1.0000000
B2   B   0.761902276143851   0.523874866832390   0.111038750481011   1.0000000
B2   B   0.761902276143851   0.666600427194458   0.111038750481011   1.0000000
B2   B   0.761749310606427   0.809505108917008   0.111018212497824   1.0000000
N2   N   0.952259830668808   0.904804304428869   0.111009052268048   1.0000000
N2   N   0.952283926035206   0.047717475882800   0.111011603030842   1.0000000
N2   N   0.952282064546081   0.190425829649541   0.111014195222433   1.0000000
N2   N   0.952283926035206   0.333136044905406   0.111011603030842   1.0000000
N2   N   0.952259830668808   0.476026832548934   0.111009052268048   1.0000000
N2   N   0.952288749796315   0.618976770206392   0.111014039389879   1.0000000
N2   N   0.952288749796315   0.761883285899921   0.111014039389879   1.0000000
N2   N   0.095189653507864   0.904811748410134   0.111010335430763   1.0000000
N2   N   0.095197097489129   0.047741571249198   0.111009052268048   1.0000000
N2   N   0.095025518245939   0.190436744237243   0.111009089322860   1.0000000
N2   N   0.095025518245939   0.333160080317699   0.111009089322860   1.0000000
N2   N   0.095197097489129   0.476026832548934   0.111009052268048   1.0000000
N2   N   0.095189653507864   0.618950922963730   0.111010335430763   1.0000000
N2   N   0.095201392688815   0.761887205277411   0.111008723703752   1.0000000
N2   N   0.238114196640594   0.904800009229184   0.111008723703752   1.0000000
N2   N   0.238118116018085   0.047712652121690   0.111014039389879   1.0000000
N2   N   0.238250025884209   0.190703750146589   0.111013523176059   1.0000000
N2   N   0.237713071973838   0.333142189141417   0.111007046851541   1.0000000
N2   N   0.238250025884209   0.476117582046615   0.111013523176059   1.0000000
N2   N   0.238118116018085   0.618976770206392   0.111014039389879   1.0000000
N2   N   0.238114196640594   0.761887205277411   0.111008723703752   1.0000000
N2   N   0.381050478954269   0.904811748410134   0.111010335430763   1.0000000
N2   N   0.381024631711607   0.047712652121690   0.111014039389879   1.0000000
N2   N   0.381065007400108   0.190699919192215   0.111015423028684   1.0000000
N2   N   0.381441016434411   0.333986243179894   0.111010947359880   1.0000000
N2   N   0.381441016434411   0.476026079563513   0.111010947359880   1.0000000
N2   N   0.381065007400108   0.618936394517891   0.111015423028684   1.0000000
N2   N   0.381024631711607   0.761883285899921   0.111014039389879   1.0000000
N2   N   0.523974569368062   0.904804304428869   0.111009052268048   1.0000000
N2   N   0.523974569368062   0.047741571249198   0.111009052268048   1.0000000
N2   N   0.523883819870381   0.190703750146589   0.111013523176059   1.0000000
N2   N   0.523975322353484   0.333986243179894   0.111010947359880   1.0000000
N2   N   0.523975322353484   0.618560385483588   0.111010947359880   1.0000000
N2   N   0.523883819870381   0.761751376033797   0.111013523176059   1.0000000
N2   N   0.666841321599298   0.904975883672059   0.111009089322860   1.0000000
N2   N   0.666865357011591   0.047717475882800   0.111011603030842   1.0000000
N2   N   0.666841321599298   0.190436744237243   0.111009089322860   1.0000000
N2   N   0.666859212775580   0.333142189141417   0.111007046851541   1.0000000
N2   N   0.666015158737103   0.476026079563513   0.111010947359880   1.0000000
N2   N   0.666015158737103   0.618560385483588   0.111010947359880   1.0000000
N2   N   0.666859212775580   0.762288329944168   0.111007046851541   1.0000000
N2   N   0.809564657680756   0.904975883672059   0.111009089322860   1.0000000
N2   N   0.809575572268458   0.047719337371925   0.111014195222433   1.0000000
N2   N   0.809575572268458   0.190425829649541   0.111014195222433   1.0000000
N2   N   0.809564657680756   0.333160080317699   0.111009089322860   1.0000000
N2   N   0.809297651771409   0.476117582046615   0.111013523176059   1.0000000
N2   N   0.809301482725784   0.618936394517891   0.111015423028684   1.0000000
N2   N   0.809297651771409   0.761751376033797   0.111013523176059   1.0000000
O2   O   0.523810499174999   0.476190902741997   0.111054379079558   1.0000000


