data_1
_audit_creation_method   'vasp2cif'
_cell_length_a    17.52789999999977
_cell_length_b    17.52789999999977
_cell_length_c    15.0
_cell_angle_alpha    90.0
_cell_angle_beta    90.0
_cell_angle_gamma    119.99999999999916

_symmetry_space_group_name_H-M    'P 1'
loop_
_atom_site_label
_atom_site_type_symbol
_atom_site_fract_x
_atom_site_fract_y
_atom_site_fract_z
_atom_site_occupancy
B2   B   0.905123090400394   0.952446967950237   0.119351919739863   1.0000000
B2   B   0.904972885041801   0.095205489593859   0.119531867285225   1.0000000
B2   B   0.904997046864572   0.238066277249622   0.118120375344482   1.0000000
B2   B   0.905096430674938   0.380938210856478   0.116000228897050   1.0000000
B2   B   0.904802347581111   0.523694896510740   0.114396761254554   1.0000000
B2   B   0.904367102183755   0.666287754255684   0.114930617150172   1.0000000
B2   B   0.904370258646992   0.808976549605902   0.117121101574782   1.0000000
B2   B   0.047821081507202   0.952338818784568   0.118502302322248   1.0000000
B2   B   0.047739957234704   0.095056485982973   0.119583015218588   1.0000000
B2   B   0.047691039614826   0.238003823481939   0.118899895744022   1.0000000
B2   B   0.047694628643526   0.380994328862222   0.116231090497379   1.0000000
B2   B   0.047752946725062   0.523836211048319   0.115108623779569   1.0000000
B2   B   0.047723383826209   0.666578761669157   0.115658017371494   1.0000000
B2   B   0.047623023919662   0.809378128706584   0.117105818758304   1.0000000
B2   B   0.190769723281868   0.952505975930926   0.117141084404253   1.0000000
B2   B   0.191174786126091   0.095755613511663   0.117221525827198   1.0000000
B2   B   0.190026296206511   0.237531319440230   0.117461171978988   1.0000000
B2   B   0.190063389947106   0.380833165752016   0.111529337830213   1.0000000
B2   B   0.190461896792350   0.523727311258497   0.108992944341885   1.0000000
B2   B   0.190881759785455   0.666580496416913   0.111741238807959   1.0000000
B2   B   0.190670449120894   0.809466038242320   0.115614513324438   1.0000000
B2   B   0.333569606366595   0.952393955905571   0.115600111819198   1.0000000
B2   B   0.333850280789100   0.095719651476941   0.114800488004079   1.0000000
B2   B   0.334682298951563   0.239609065528278   0.111755386266843   1.0000000
B2   B   0.330090189435651   0.379309534525874   0.098777689323782   1.0000000
B2   B   0.332043026495356   0.522357779659224   0.088071010961961   1.0000000
B2   B   0.333950226180512   0.666183476965315   0.100502630370784   1.0000000
B2   B   0.333565096412720   0.809250285122779   0.111723644338987   1.0000000
B2   B   0.476316991980475   0.952377418167224   0.114891301583697   1.0000000
B2   B   0.476459464824039   0.095291998630138   0.114081559388801   1.0000000
B2   B   0.476807078184308   0.238270820661249   0.109460644288518   1.0000000
B2   B   0.478907870977338   0.381509662832016   0.104784827397694   1.0000000
B2   B   0.477793609993242   0.668160411390481   0.088090680523770   1.0000000
B2   B   0.476422315832679   0.809700365495353   0.108877026159050   1.0000000
B2   B   0.619180193855868   0.952471612056570   0.115883337061092   1.0000000
B2   B   0.619226709712045   0.095054398830022   0.115726830467054   1.0000000
B2   B   0.619566260067216   0.237628814060940   0.111670162802632   1.0000000
B2   B   0.620329360576768   0.379847970739810   0.106140326857023   1.0000000
B2   B   0.618231667025199   0.521148142843181   0.103665687550489   1.0000000
B2   B   0.620880151233862   0.670116080751356   0.098874123671422   1.0000000
B2   B   0.619330272250565   0.810134570957864   0.111302086253559   1.0000000
B2   B   0.762154925483713   0.952497578986616   0.118482486602090   1.0000000
B2   B   0.762103657093931   0.095180163105375   0.117923137549795   1.0000000
B2   B   0.762266113602919   0.237906724191269   0.115551598125791   1.0000000
B2   B   0.762518248513317   0.380600398418501   0.111837903888961   1.0000000
B2   B   0.761725175172998   0.523305397845412   0.109624400618095   1.0000000
B2   B   0.760418851410229   0.665437745009285   0.111998295613368   1.0000000
B2   B   0.762642830012055   0.810176061881393   0.117247635062249   1.0000000
N2   N   0.952398136202042   0.904429440935083   0.118642452700620   1.0000000
N2   N   0.952618271303052   0.047569459952889   0.119737330240184   1.0000000
N2   N   0.952505121752964   0.190410680147487   0.119341005358294   1.0000000
N2   N   0.952504212380028   0.333297380696464   0.117370122775625   1.0000000
N2   N   0.952410719350901   0.476169657718401   0.115677623334044   1.0000000
N2   N   0.952219097256389   0.618878659635065   0.115260952090978   1.0000000
N2   N   0.952161667913600   0.761514797325781   0.116555368730623   1.0000000
N2   N   0.095431651255019   0.904710807551524   0.117820364232280   1.0000000
N2   N   0.095731042891735   0.047759112667485   0.118816294393852   1.0000000
N2   N   0.095058359971809   0.190080593717973   0.119801609902566   1.0000000
N2   N   0.095005807379429   0.333201780076252   0.116579225169893   1.0000000
N2   N   0.095217973268447   0.476209146036737   0.114420719075660   1.0000000
N2   N   0.095440199681484   0.619063158792592   0.114632214086356   1.0000000
N2   N   0.095316149431575   0.761836900095844   0.116441698792428   1.0000000
N2   N   0.238322089745189   0.904825630014599   0.116463605137326   1.0000000
N2   N   0.238635355599200   0.047968806834419   0.116584260410868   1.0000000
N2   N   0.239124257084100   0.191245456071762   0.115766948387211   1.0000000
N2   N   0.236523636780284   0.331978089911622   0.113533471276092   1.0000000
N2   N   0.237501950977496   0.475956970717675   0.104907399646045   1.0000000
N2   N   0.238486181428506   0.619000394828909   0.106760099194247   1.0000000
N2   N   0.238287884216525   0.761855713223838   0.113032224895761   1.0000000
N2   N   0.381100609222713   0.904691442044211   0.114560725308145   1.0000000
N2   N   0.381276312454794   0.047891779153815   0.115073684465251   1.0000000
N2   N   0.381823507256755   0.191354176859882   0.112179130066607   1.0000000
N2   N   0.382928848268819   0.335889851265833   0.106172816388082   1.0000000
N2   N   0.371949536380988   0.469264453711638   0.074559013856401   1.0000000
N2   N   0.381406480587017   0.618739189847183   0.087801355971237   1.0000000
N2   N   0.381127519466204   0.761641978547026   0.106732977217419   1.0000000
N2   N   0.523953376144327   0.904938418438221   0.114183865990576   1.0000000
N2   N   0.523997874209073   0.047716697810060   0.115360480864737   1.0000000
N2   N   0.524321335799975   0.190729589120302   0.111479603863245   1.0000000
N2   N   0.525641323807605   0.334222130400441   0.105312880910923   1.0000000
N2   N   0.530890229525944   0.628248020696788   0.074641694577252   1.0000000
N2   N   0.524191793454200   0.762676875313836   0.104824303429147   1.0000000
N2   N   0.666982144677640   0.905188592021830   0.116164790503611   1.0000000
N2   N   0.666879631818020   0.047667022194574   0.117058547634507   1.0000000
N2   N   0.667013939605972   0.190237432968324   0.114506710517965   1.0000000
N2   N   0.667472581328120   0.332690610205795   0.109355845837236   1.0000000
N2   N   0.665795858805097   0.474494579388875   0.105028016306875   1.0000000
N2   N   0.664214947834118   0.617266073883421   0.106453659875306   1.0000000
N2   N   0.668212587266382   0.763714018807121   0.113418868319599   1.0000000
N2   N   0.810118733026258   0.905154223800231   0.119375280961570   1.0000000
N2   N   0.809778110276049   0.047681668096210   0.119077522889256   1.0000000
N2   N   0.809776748975167   0.190396340584101   0.117492309661237   1.0000000
N2   N   0.809910014443510   0.333152462953869   0.114669917362242   1.0000000
N2   N   0.809345194281903   0.475837458235468   0.111824066528406   1.0000000
N2   N   0.808718545095765   0.618302879936188   0.112392789299889   1.0000000
N2   N   0.808877671221204   0.761041370092840   0.115737761030992   1.0000000
Sn2   Sn   0.490390854766346   0.510067236213452   0.014073444921934   1.0000000


