data_1
_audit_creation_method   'vasp2cif'
_cell_length_a    17.52789999999977
_cell_length_b    17.52789999999977
_cell_length_c    15.0
_cell_angle_alpha    90.0
_cell_angle_beta    90.0
_cell_angle_gamma    119.99999999999916

_symmetry_space_group_name_H-M    'P 1'
loop_
_atom_site_label
_atom_site_type_symbol
_atom_site_fract_x
_atom_site_fract_y
_atom_site_fract_z
_atom_site_occupancy
Ga2   Ga   0.437968527352929   0.504699466300462   0.111245392369632   1.0000000
B2   B   0.905072385211717   0.952645876628088   0.110990350583130   1.0000000
B2   B   0.906315186789219   0.096281645909347   0.111037488137728   1.0000000
B2   B   0.906746156073304   0.239087424882154   0.111098495692986   1.0000000
B2   B   0.906315186789219   0.381462234570868   0.111037488137728   1.0000000
B2   B   0.905072385211717   0.523856913831638   0.110990350583130   1.0000000
B2   B   0.903794803396494   0.666186391961224   0.111041388681879   1.0000000
B2   B   0.903794803396494   0.809038816683272   0.111041388681879   1.0000000
B2   B   0.046862516724031   0.951534123282812   0.110996711735716   1.0000000
B2   B   0.048070223391767   0.094969213232068   0.111003064475064   1.0000000
B2   B   0.049690064308205   0.239072487718298   0.111035582693285   1.0000000
B2   B   0.049690064308205   0.382047981836907   0.111035582693285   1.0000000
B2   B   0.048070223391767   0.524531415407694   0.111003064475064   1.0000000
B2   B   0.046862516724031   0.666760510245209   0.110996711735716   1.0000000
B2   B   0.046681619842021   0.809056868323009   0.110977112179566   1.0000000
B2   B   0.189580910088082   0.951337960994378   0.111001300245162   1.0000000
B2   B   0.189671110069044   0.093256027363784   0.111048436301639   1.0000000
B2   B   0.190937535192019   0.236569613286187   0.111018762716232   1.0000000
B2   B   0.193694302440349   0.382562353843678   0.111036083626737   1.0000000
B2   B   0.190937535192019   0.525798327153841   0.111018762716232   1.0000000
B2   B   0.189671110069044   0.667845487953255   0.111048436301639   1.0000000
B2   B   0.189580910088082   0.809675065897715   0.111001300245162   1.0000000
B2   B   0.332880619537542   0.952156368170276   0.111022702709386   1.0000000
B2   B   0.332833432941190   0.092468185710215   0.111067944798374   1.0000000
B2   B   0.332476519064315   0.232162649379324   0.111030382074974   1.0000000
B2   B   0.333297232231671   0.371091718996993   0.111149072616239   1.0000000
B2   B   0.333297232231671   0.533635918481677   0.111149072616239   1.0000000
B2   B   0.332476519064315   0.671744274931998   0.111030382074974   1.0000000
B2   B   0.332833432941190   0.811795652477974   0.111067944798374   1.0000000
B2   B   0.476631111579926   0.953797212203053   0.111004792127150   1.0000000
B2   B   0.476631111579926   0.094264304623880   0.111004792127150   1.0000000
B2   B   0.476731091000180   0.234519286220395   0.111013442541687   1.0000000
B2   B   0.477602632781845   0.374821410724211   0.111030426935147   1.0000000
B2   B   0.477602632781845   0.674211627304634   0.111030426935147   1.0000000
B2   B   0.476731091000180   0.813642210026792   0.111013442541687   1.0000000
B2   B   0.620253663705458   0.954363316957185   0.110990967872699   1.0000000
B2   B   0.620311822848074   0.095870258269532   0.110983889134870   1.0000000
B2   B   0.620253663705458   0.237320751995272   0.110990967872699   1.0000000
B2   B   0.620299301239960   0.379440488820051   0.110997930472572   1.0000000
B2   B   0.617417761209365   0.520882961796198   0.111056644013027   1.0000000
B2   B   0.617417761209365   0.667965204661162   0.111056644013027   1.0000000
B2   B   0.620299301239960   0.812289217666908   0.110997930472572   1.0000000
B2   B   0.763352696980983   0.953936407297486   0.110982702868808   1.0000000
B2   B   0.763583202970399   0.096398503912484   0.111025997265308   1.0000000
B2   B   0.763583202970399   0.238613392748912   0.111025997265308   1.0000000
B2   B   0.763352696980983   0.380846694930497   0.110982702868808   1.0000000
B2   B   0.761772605058556   0.522949356626762   0.111032234441209   1.0000000
B2   B   0.760087305563874   0.665758855405938   0.111092690038785   1.0000000
B2   B   0.761772605058556   0.810253653679789   0.111032234441209   1.0000000
N2   N   0.951642240695751   0.904125046641454   0.110989595187810   1.0000000
N2   N   0.953034478743339   0.047855772415189   0.110980864839957   1.0000000
N2   N   0.954528575228927   0.191654630119188   0.111052920855503   1.0000000
N2   N   0.954528575228927   0.334300927227744   0.111052920855503   1.0000000
N2   N   0.953034478743339   0.476605688446148   0.110980864839957   1.0000000
N2   N   0.951642240695751   0.618945887729293   0.110989595187810   1.0000000
N2   N   0.951112257459272   0.761270475567134   0.111009423780477   1.0000000
N2   N   0.094334363139773   0.904002364434299   0.110962141400307   1.0000000
N2   N   0.094810205938751   0.046664666968886   0.110997172498962   1.0000000
N2   N   0.096322504505525   0.190439411702889   0.110992560030049   1.0000000
N2   N   0.098518004237354   0.334973348955677   0.111003404775110   1.0000000
N2   N   0.096322504505525   0.477311786476643   0.110992560030049   1.0000000
N2   N   0.094810205938751   0.619574232644860   0.110997172498962   1.0000000
N2   N   0.094334363139773   0.761762403936480   0.110962141400307   1.0000000
N2   N   0.237605710688994   0.904518057960000   0.110979392529162   1.0000000
N2   N   0.237649776702776   0.046217163501084   0.111038446188500   1.0000000
N2   N   0.237829978164741   0.188260141389316   0.111031632137807   1.0000000
N2   N   0.240401668813605   0.332854260680080   0.111042394097441   1.0000000
N2   N   0.240401668813605   0.478976101807519   0.111042394097441   1.0000000
N2   N   0.237829978164741   0.620998530450421   0.111031632137807   1.0000000
N2   N   0.237649776702776   0.762861306876694   0.111038446188500   1.0000000
N2   N   0.381258084077485   0.906061766662739   0.111018056805860   1.0000000
N2   N   0.381258084077485   0.046625011089748   0.111018056805860   1.0000000
N2   N   0.381358709004628   0.186968243529042   0.111032827823945   1.0000000
N2   N   0.381337569638041   0.326304825369857   0.111015768610010   1.0000000
N2   N   0.381337569638041   0.626461437943187   0.111015768610010   1.0000000
N2   N   0.381358709004628   0.765819159150589   0.111032827823945   1.0000000
N2   N   0.524990462666576   0.907590861264591   0.110989597250568   1.0000000
N2   N   0.524995434414801   0.048211208266904   0.110965838004967   1.0000000
N2   N   0.524990462666576   0.188828295076981   0.110989597250568   1.0000000
N2   N   0.525128876284053   0.329084027610537   0.110981799711446   1.0000000
N2   N   0.523474330782805   0.468340700989175   0.111041283944597   1.0000000
N2   N   0.523474330782805   0.626562323468626   0.111041283944597   1.0000000
N2   N   0.525128876284053   0.767473542348519   0.110981799711446   1.0000000
N2   N   0.668091542240249   0.906830769176241   0.110969582902068   1.0000000
N2   N   0.668309367678805   0.048948346629090   0.110976638594937   1.0000000
N2   N   0.668309367678805   0.190788003168722   0.110976638594937   1.0000000
N2   N   0.668091542240249   0.332689466739003   0.110969582902068   1.0000000
N2   N   0.666786513410138   0.474943379867385   0.111010146077215   1.0000000
N2   N   0.663777530599470   0.617603112137737   0.111058582911288   1.0000000
N2   N   0.666786513410138   0.763271827217756   0.111010146077215   1.0000000
N2   N   0.809899505463127   0.905313715476487   0.110978266280672   1.0000000
N2   N   0.811155012748401   0.048860453619568   0.110999486478842   1.0000000
N2   N   0.811459777209800   0.191443379663903   0.111049338194497   1.0000000
N2   N   0.811155012748401   0.333721541246831   0.110999486478842   1.0000000
N2   N   0.809899505463127   0.476014483660641   0.110978266280672   1.0000000
N2   N   0.808056091245679   0.618348594830177   0.111054098551740   1.0000000
N2   N   0.808056091245679   0.761136190090512   0.111054098551740   1.0000000


