data_1
_audit_creation_method   'vasp2cif'
_cell_length_a    14.93631414619966
_cell_length_b    14.936314146199727
_cell_length_c    13.341276283792837
_cell_angle_alpha    90.0
_cell_angle_beta    90.0
_cell_angle_gamma    119.99999999999984

_symmetry_space_group_name_H-M    'P 1'
loop_
_atom_site_label
_atom_site_type_symbol
_atom_site_fract_x
_atom_site_fract_y
_atom_site_fract_z
_atom_site_occupancy
Se2   Se   0.555555555555557   0.444444444444443   0.375000000000000   1.0000000
N2   N   0.111087926501528   0.055548018235761   0.124981294621624   1.0000000
N2   N   0.611145822890448   0.555624979114224   0.123104918492550   1.0000000
N2   N   0.444460296120660   0.055587692204371   0.125169067755218   1.0000000
N2   N   0.944412307795628   0.555539703879339   0.125169067755218   1.0000000
N2   N   0.777784331591705   0.055558832462519   0.124804404119830   1.0000000
N2   N   0.111089298003467   0.722211315668397   0.625015305210691   1.0000000
N2   N   0.444460296120660   0.722205937249623   0.624830932244782   1.0000000
N2   N   0.277727531817726   0.222221817339620   0.625075820674782   1.0000000
N2   N   0.777778182660378   0.722272468182276   0.625075820674782   1.0000000
N2   N   0.611160952188567   0.222221817339620   0.625075820674782   1.0000000
N2   N   0.944441167537482   0.222215668408298   0.625195595880169   1.0000000
N2   N   0.277788684331602   0.722211315668397   0.124984694789309   1.0000000
N2   N   0.111041671374812   0.222187502354070   0.124798464160545   1.0000000
N2   N   0.444468871146101   0.222271075625539   0.124933613913355   1.0000000
N2   N   0.611160952188567   0.722272468182276   0.124924179325217   1.0000000
N2   N   0.944412307795628   0.722205937249623   0.125169067755218   1.0000000
N2   N   0.777812497645929   0.222187502354070   0.124798464160545   1.0000000
N2   N   0.111108326367428   0.888891673632571   0.625097125346784   1.0000000
N2   N   0.444450013931815   0.888891673632571   0.625097125346784   1.0000000
N2   N   0.277727531817726   0.388839047811434   0.625075820674782   1.0000000
N2   N   0.611145822890448   0.388854177109552   0.626895081507448   1.0000000
N2   N   0.777812497645929   0.888958328625187   0.625201535839456   1.0000000
N2   N   0.944451981764239   0.388873241599095   0.625018705378375   1.0000000
N2   N   0.111087926501528   0.388873241599095   0.124981294621624   1.0000000
N2   N   0.277788684331602   0.888910701996534   0.124984694789309   1.0000000
N2   N   0.611126758400905   0.888912073498471   0.124981294621624   1.0000000
N2   N   0.444375020885777   0.388854177109552   0.123104918492550   1.0000000
N2   N   0.944451981764239   0.888912073498471   0.124981294621624   1.0000000
N2   N   0.777778182660378   0.388839047811434   0.124924179325217   1.0000000
N2   N   0.277794062750376   0.555539703879339   0.624830932244782   1.0000000
N2   N   0.111087926501528   0.055548018235761   0.625018705378375   1.0000000
N2   N   0.611145822890448   0.555624979114224   0.626895081507448   1.0000000
N2   N   0.444460296120660   0.055587692204371   0.624830932244782   1.0000000
N2   N   0.944412307795628   0.555539703879339   0.624830932244782   1.0000000
N2   N   0.111108326367428   0.555549986068184   0.124902874653218   1.0000000
N2   N   0.777784331591705   0.055558832462519   0.625195595880169   1.0000000
N2   N   0.277794062750376   0.055587692204371   0.125169067755218   1.0000000
N2   N   0.444468871146101   0.555531128853899   0.124933613913355   1.0000000
N2   N   0.777728924374462   0.555531128853899   0.124933613913355   1.0000000
N2   N   0.611126758400905   0.055548018235761   0.124981294621624   1.0000000
N2   N   0.444468871146101   0.555531128853899   0.625066386086647   1.0000000
N2   N   0.944441167537482   0.055558832462519   0.124804404119830   1.0000000
N2   N   0.277788684331602   0.722211315668397   0.625015305210691   1.0000000
N2   N   0.111041671374812   0.222187502354070   0.625201535839456   1.0000000
N2   N   0.444468871146101   0.222271075625539   0.625066386086647   1.0000000
N2   N   0.611160952188567   0.722272468182276   0.625075820674782   1.0000000
N2   N   0.944412307795628   0.722205937249623   0.624830932244782   1.0000000
N2   N   0.777812497645929   0.222187502354070   0.625201535839456   1.0000000
N2   N   0.111089298003467   0.722211315668397   0.124984694789309   1.0000000
N2   N   0.444460296120660   0.722205937249623   0.125169067755218   1.0000000
N2   N   0.277727531817726   0.222221817339620   0.124924179325217   1.0000000
N2   N   0.777778182660378   0.722272468182276   0.124924179325217   1.0000000
N2   N   0.611160952188567   0.222221817339620   0.124924179325217   1.0000000
N2   N   0.944441167537482   0.222215668408298   0.124804404119830   1.0000000
N2   N   0.111087926501528   0.388873241599095   0.625018705378375   1.0000000
N2   N   0.277788684331602   0.888910701996534   0.625015305210691   1.0000000
N2   N   0.611126758400905   0.888912073498471   0.625018705378375   1.0000000
N2   N   0.444375020885777   0.388854177109552   0.626895081507448   1.0000000
N2   N   0.944451981764239   0.888912073498471   0.625018705378375   1.0000000
N2   N   0.111108326367428   0.888891673632571   0.124902874653218   1.0000000
N2   N   0.777778182660378   0.388839047811434   0.625075820674782   1.0000000
N2   N   0.444450013931815   0.888891673632571   0.124902874653218   1.0000000
N2   N   0.277727531817726   0.388839047811434   0.124924179325217   1.0000000
N2   N   0.277794062750376   0.555539703879339   0.125169067755218   1.0000000
N2   N   0.611145822890448   0.388854177109552   0.123104918492550   1.0000000
N2   N   0.777812497645929   0.888958328625187   0.124798464160545   1.0000000
N2   N   0.944451981764239   0.388873241599095   0.124981294621624   1.0000000
N2   N   0.111108326367428   0.555549986068184   0.625097125346784   1.0000000
N2   N   0.277794062750376   0.055587692204371   0.624830932244782   1.0000000
N2   N   0.777728924374462   0.555531128853899   0.625066386086647   1.0000000
N2   N   0.611126758400905   0.055548018235761   0.625018705378375   1.0000000
N2   N   0.944441167537482   0.055558832462519   0.625195595880169   1.0000000
N2   N   0.054639573247154   0.110532945804631   0.375000000000000   1.0000000
N2   N   0.554417367366644   0.619676471056989   0.375000000000000   1.0000000
N2   N   0.387202942619400   0.107739218572142   0.375000000000000   1.0000000
N2   N   0.892260781427858   0.612797057380601   0.375000000000000   1.0000000
N2   N   0.722560039224142   0.110532945804631   0.375000000000000   1.0000000
N2   N   0.055544851917580   0.777759639733243   0.875000000000000   1.0000000
N2   N   0.388881454482325   0.777759639733243   0.875000000000000   1.0000000
N2   N   0.222236020397330   0.277784676865332   0.875000000000000   1.0000000
N2   N   0.722215323134668   0.777763979602671   0.875000000000000   1.0000000
N2   N   0.555567674048122   0.277781759171618   0.875000000000000   1.0000000
N2   N   0.888909010794360   0.277795817831900   0.875000000000000   1.0000000
N2   N   0.222222222222221   0.777777777777779   0.375000000000000   1.0000000
N2   N   0.054639573247154   0.277439960775859   0.375000000000000   1.0000000
N2   N   0.380323528943009   0.268074229642989   0.375000000000000   1.0000000
N2   N   0.554966950405394   0.781299495290930   0.375000000000000   1.0000000
N2   N   0.892999211552197   0.781299495290930   0.375000000000000   1.0000000
N2   N   0.723592451831978   0.276407548168022   0.375000000000000   1.0000000
N2   N   0.055553058141247   0.944446941858753   0.875000000000000   1.0000000
N2   N   0.388881454482325   0.944455148082419   0.875000000000000   1.0000000
N2   N   0.222224362184346   0.444451479289969   0.875000000000000   1.0000000
N2   N   0.555555555555557   0.444444444444443   0.875000000000000   1.0000000
N2   N   0.722204182168100   0.944446526295797   0.875000000000000   1.0000000
N2   N   0.888893783772287   0.444451479289969   0.875000000000000   1.0000000
N2   N   0.055764895590232   0.444863124513793   0.375000000000000   1.0000000
N2   N   0.221723308746687   0.943168227426383   0.375000000000000   1.0000000
N2   N   0.555136875486206   0.944235104409767   0.375000000000000   1.0000000
N2   N   0.380323528943009   0.445582632633356   0.375000000000000   1.0000000
N2   N   0.889467054195370   0.945360426752846   0.375000000000000   1.0000000
N2   N   0.731925770357009   0.445582632633356   0.375000000000000   1.0000000
N2   N   0.222240360266758   0.611118545517673   0.875000000000000   1.0000000
N2   N   0.055553473704204   0.111090989205640   0.875000000000000   1.0000000
N2   N   0.555567674048122   0.611119248209837   0.875000000000000   1.0000000
N2   N   0.388885006022538   0.111103345378418   0.875000000000000   1.0000000
N2   N   0.888896654621582   0.611114993977463   0.875000000000000   1.0000000
N2   N   0.056831772573616   0.611888414653639   0.375000000000000   1.0000000
N2   N   0.722204182168100   0.111090989205640   0.875000000000000   1.0000000
N2   N   0.218700504709071   0.107000788447803   0.375000000000000   1.0000000
N2   N   0.387202942619400   0.612797057380601   0.375000000000000   1.0000000
N2   N   0.731925770357009   0.619676471056989   0.375000000000000   1.0000000
N2   N   0.554966950405394   0.107000788447803   0.375000000000000   1.0000000
N2   N   0.388885006022538   0.611114993977463   0.875000000000000   1.0000000
N2   N   0.888888888888886   0.111111111111114   0.375000000000000   1.0000000
N2   N   0.222222222222221   0.777777777777779   0.875000000000000   1.0000000
N2   N   0.055553473704204   0.277795817831900   0.875000000000000   1.0000000
N2   N   0.388880751790161   0.277781759171618   0.875000000000000   1.0000000
N2   N   0.555548520710031   0.777775637815653   0.875000000000000   1.0000000
N2   N   0.888893783772287   0.777775637815653   0.875000000000000   1.0000000
N2   N   0.722215323134668   0.277784676865332   0.875000000000000   1.0000000
N2   N   0.056831772573616   0.778276691253313   0.375000000000000   1.0000000
N2   N   0.388111585346360   0.778276691253313   0.375000000000000   1.0000000
N2   N   0.219481763002707   0.276407548168022   0.375000000000000   1.0000000
N2   N   0.723592451831978   0.780518236997291   0.375000000000000   1.0000000
N2   N   0.554417367366644   0.268074229642989   0.375000000000000   1.0000000
N2   N   0.889467054195370   0.277439960775859   0.375000000000000   1.0000000
N2   N   0.055553058141247   0.444439449615822   0.875000000000000   1.0000000
N2   N   0.222240360266758   0.944455148082419   0.875000000000000   1.0000000
N2   N   0.555560550384177   0.944446941858753   0.875000000000000   1.0000000
N2   N   0.388880751790161   0.444432325951879   0.875000000000000   1.0000000
N2   N   0.888909010794360   0.944446526295797   0.875000000000000   1.0000000
N2   N   0.055764895590232   0.944235104409767   0.375000000000000   1.0000000
N2   N   0.722218240828383   0.444432325951879   0.875000000000000   1.0000000
N2   N   0.388111585346360   0.943168227426383   0.375000000000000   1.0000000
N2   N   0.218700504709071   0.445033049594603   0.375000000000000   1.0000000
N2   N   0.221723308746687   0.611888414653639   0.375000000000000   1.0000000
N2   N   0.722560039224142   0.945360426752846   0.375000000000000   1.0000000
N2   N   0.892999211552197   0.445033049594603   0.375000000000000   1.0000000
N2   N   0.055544851917580   0.611118545517673   0.875000000000000   1.0000000
N2   N   0.222224362184346   0.111106216227712   0.875000000000000   1.0000000
N2   N   0.722218240828383   0.611119248209837   0.875000000000000   1.0000000
N2   N   0.555548520710031   0.111106216227712   0.875000000000000   1.0000000
N2   N   0.888888888888886   0.111111111111114   0.875000000000000   1.0000000
B2   B   0.109274716679751   0.054071000003166   0.375000000000000   1.0000000
B2   B   0.623339989013289   0.580013311359904   0.375000000000000   1.0000000
B2   B   0.443775895692599   0.053426757353897   0.375000000000000   1.0000000
B2   B   0.946573242646103   0.556224104307401   0.375000000000000   1.0000000
B2   B   0.778181015851583   0.055757174592459   0.375000000000000   1.0000000
B2   B   0.111011582317572   0.722172457825451   0.875000000000000   1.0000000
B2   B   0.444367642986499   0.722161757791599   0.875000000000000   1.0000000
B2   B   0.277848521701675   0.222331413876888   0.875000000000000   1.0000000
B2   B   0.777668586123114   0.722151478298326   0.875000000000000   1.0000000
B2   B   0.611149558841885   0.222331413876888   0.875000000000000   1.0000000
B2   B   0.944493426219923   0.222320185773183   0.875000000000000   1.0000000
B2   B   0.277442773084695   0.722557226915304   0.375000000000000   1.0000000
B2   B   0.109573343862911   0.221453338598120   0.375000000000000   1.0000000
B2   B   0.442330294036631   0.217993921406601   0.375000000000000   1.0000000
B2   B   0.611237932189425   0.728074116179328   0.375000000000000   1.0000000
B2   B   0.946573242646103   0.723682471672036   0.375000000000000   1.0000000
B2   B   0.778546661401882   0.221453338598120   0.375000000000000   1.0000000
B2   B   0.111111729405241   0.888888270594760   0.875000000000000   1.0000000
B2   B   0.444443207856190   0.888888270594760   0.875000000000000   1.0000000
B2   B   0.277848521701675   0.388850441158116   0.875000000000000   1.0000000
B2   B   0.611141174454681   0.388858825545317   0.875000000000000   1.0000000
B2   B   0.777768553917537   0.888870441168406   0.875000000000000   1.0000000
B2   B   0.944484105052343   0.388857413348137   0.875000000000000   1.0000000
B2   B   0.109274716679751   0.388537050009914   0.375000000000000   1.0000000
B2   B   0.277442773084695   0.888218879502718   0.375000000000000   1.0000000
B2   B   0.611462949990087   0.890725283320248   0.375000000000000   1.0000000
B2   B   0.419986688640096   0.376660010986712   0.375000000000000   1.0000000
B2   B   0.945928999996834   0.890725283320248   0.375000000000000   1.0000000
B2   B   0.783502850656575   0.388762067810575   0.375000000000000   1.0000000
B2   B   0.277838242208401   0.555632357013500   0.875000000000000   1.0000000
B2   B   0.111039974962466   0.055515894947658   0.875000000000000   1.0000000
B2   B   0.611141174454681   0.555615682242694   0.875000000000000   1.0000000
B2   B   0.444367642986499   0.055539218528235   0.875000000000000   1.0000000
B2   B   0.944460781471766   0.555632357013500   0.875000000000000   1.0000000
B2   B   0.111239155872872   0.555811645079071   0.375000000000000   1.0000000
B2   B   0.777679814226816   0.055506573780076   0.875000000000000   1.0000000
B2   B   0.276317528327963   0.053426757353897   0.375000000000000   1.0000000
B2   B   0.442330294036631   0.557669705963367   0.375000000000000   1.0000000
B2   B   0.782006078593402   0.557669705963367   0.375000000000000   1.0000000
B2   B   0.611462949990087   0.054071000003166   0.375000000000000   1.0000000
B2   B   0.444462860076655   0.555537139923345   0.875000000000000   1.0000000
B2   B   0.944242825407541   0.055757174592459   0.375000000000000   1.0000000
B2   B   0.277827542174550   0.722172457825451   0.875000000000000   1.0000000
B2   B   0.111129558831595   0.222231446082462   0.875000000000000   1.0000000
B2   B   0.444462860076655   0.222259053486646   0.875000000000000   1.0000000
B2   B   0.611149558841885   0.722151478298326   0.875000000000000   1.0000000
B2   B   0.944460781471766   0.722161757791599   0.875000000000000   1.0000000
B2   B   0.777768553917537   0.222231446082462   0.875000000000000   1.0000000
B2   B   0.111781120497283   0.722557226915304   0.375000000000000   1.0000000
B2   B   0.443775895692599   0.723682471672036   0.375000000000000   1.0000000
B2   B   0.271925883820673   0.216497149343426   0.375000000000000   1.0000000
B2   B   0.783502850656575   0.728074116179328   0.375000000000000   1.0000000
B2   B   0.611237932189425   0.216497149343426   0.375000000000000   1.0000000
B2   B   0.944242825407541   0.221818984148418   0.375000000000000   1.0000000
B2   B   0.111039974962466   0.388857413348137   0.875000000000000   1.0000000
B2   B   0.277827542174550   0.888988417682428   0.875000000000000   1.0000000
B2   B   0.611142586651862   0.888960025037533   0.875000000000000   1.0000000
B2   B   0.444384317757307   0.388858825545317   0.875000000000000   1.0000000
B2   B   0.944484105052343   0.888960025037533   0.875000000000000   1.0000000
B2   B   0.111239155872872   0.888760844127128   0.375000000000000   1.0000000
B2   B   0.777668586123114   0.388850441158116   0.875000000000000   1.0000000
B2   B   0.444188354920928   0.888760844127128   0.375000000000000   1.0000000
B2   B   0.271925883820673   0.388762067810575   0.375000000000000   1.0000000
B2   B   0.276317528327963   0.556224104307401   0.375000000000000   1.0000000
B2   B   0.623339989013289   0.376660010986712   0.375000000000000   1.0000000
B2   B   0.778546661401882   0.890426656137090   0.375000000000000   1.0000000
B2   B   0.945928999996834   0.388537050009914   0.375000000000000   1.0000000
B2   B   0.111111729405241   0.555556792143811   0.875000000000000   1.0000000
B2   B   0.277838242208401   0.055539218528235   0.875000000000000   1.0000000
B2   B   0.777740946513354   0.555537139923345   0.875000000000000   1.0000000
B2   B   0.611142586651862   0.055515894947658   0.875000000000000   1.0000000
B2   B   0.944493426219923   0.055506573780076   0.875000000000000   1.0000000
B2   B   0.055516131242242   0.111082347162473   0.124979318683470   1.0000000
B2   B   0.555656825709133   0.611077011328925   0.124681554148549   1.0000000
B2   B   0.388943201138899   0.111219735611140   0.125353630329039   1.0000000
B2   B   0.888780264388860   0.611056798861102   0.125353630329039   1.0000000
B2   B   0.722232882586896   0.111082347162473   0.124979318683470   1.0000000
B2   B   0.055463395355309   0.777699600932332   0.624907088663207   1.0000000
B2   B   0.388902872243689   0.777699600932332   0.624907088663207   1.0000000
B2   B   0.222284616974274   0.277808975153806   0.624942256086306   1.0000000
B2   B   0.722191024846195   0.777715383025725   0.624942256086306   1.0000000
B2   B   0.555656825709133   0.277913147713544   0.625318445851449   1.0000000
B2   B   0.888917652837525   0.277767117413104   0.625020681316530   1.0000000
B2   B   0.222222222222221   0.777777777777779   0.125053836959035   1.0000000
B2   B   0.055516131242242   0.277767117413104   0.124979318683470   1.0000000
B2   B   0.388922988671077   0.277913147713544   0.124681554148549   1.0000000
B2   B   0.555615810059634   0.777741769603651   0.125215566843164   1.0000000
B2   B   0.888792626210680   0.777741769603651   0.125215566843164   1.0000000
B2   B   0.722191024846195   0.277808975153806   0.125057743913694   1.0000000
B2   B   0.055508417619881   0.944491582380119   0.624959585635218   1.0000000
B2   B   0.388902872243689   0.944536604644692   0.624907088663207   1.0000000
B2   B   0.222258230396350   0.444384189940365   0.624784433156836   1.0000000
B2   B   0.555555555555557   0.444444444444443   0.626184911483633   1.0000000
B2   B   0.722232882586896   0.944483868757757   0.625020681316530   1.0000000
B2   B   0.888792626210680   0.444384189940365   0.624784433156836   1.0000000
B2   B   0.055508417619881   0.444350168573091   0.125040414364782   1.0000000
B2   B   0.222300399067666   0.944536604644692   0.125092911336792   1.0000000
B2   B   0.555649831426910   0.944491582380119   0.125040414364782   1.0000000
B2   B   0.388922988671077   0.444343174290867   0.124681554148549   1.0000000
B2   B   0.888917652837525   0.944483868757757   0.124979318683470   1.0000000
B2   B   0.722086852286455   0.444343174290867   0.124681554148549   1.0000000
B2   B   0.222300399067666   0.611097127756313   0.624907088663207   1.0000000
B2   B   0.055516131242242   0.111082347162473   0.625020681316530   1.0000000
B2   B   0.555656825709133   0.611077011328925   0.625318445851449   1.0000000
B2   B   0.388943201138899   0.111219735611140   0.624646369670960   1.0000000
B2   B   0.888780264388860   0.611056798861102   0.624646369670960   1.0000000
B2   B   0.055463395355309   0.611097127756313   0.125092911336792   1.0000000
B2   B   0.722232882586896   0.111082347162473   0.625020681316530   1.0000000
B2   B   0.222258230396350   0.111207373789321   0.125215566843164   1.0000000
B2   B   0.388943201138899   0.611056798861102   0.125353630329039   1.0000000
B2   B   0.722086852286455   0.611077011328925   0.124681554148549   1.0000000
B2   B   0.555615810059634   0.111207373789321   0.125215566843164   1.0000000
B2   B   0.388943201138899   0.611056798861102   0.624646369670960   1.0000000
B2   B   0.888888888888886   0.111111111111114   0.124936527410876   1.0000000
B2   B   0.222222222222221   0.777777777777779   0.624946163040968   1.0000000
B2   B   0.055516131242242   0.277767117413104   0.625020681316530   1.0000000
B2   B   0.388922988671077   0.277913147713544   0.625318445851449   1.0000000
B2   B   0.555615810059634   0.777741769603651   0.624784433156836   1.0000000
B2   B   0.888792626210680   0.777741769603651   0.624784433156836   1.0000000
B2   B   0.722191024846195   0.277808975153806   0.624942256086306   1.0000000
B2   B   0.055463395355309   0.777699600932332   0.125092911336792   1.0000000
B2   B   0.388902872243689   0.777699600932332   0.125092911336792   1.0000000
B2   B   0.222284616974274   0.277808975153806   0.125057743913694   1.0000000
B2   B   0.722191024846195   0.777715383025725   0.125057743913694   1.0000000
B2   B   0.555656825709133   0.277913147713544   0.124681554148549   1.0000000
B2   B   0.888917652837525   0.277767117413104   0.124979318683470   1.0000000
B2   B   0.055508417619881   0.444350168573091   0.624959585635218   1.0000000
B2   B   0.222300399067666   0.944536604644692   0.624907088663207   1.0000000
B2   B   0.555649831426910   0.944491582380119   0.624959585635218   1.0000000
B2   B   0.388922988671077   0.444343174290867   0.625318445851449   1.0000000
B2   B   0.888917652837525   0.944483868757757   0.625020681316530   1.0000000
B2   B   0.055508417619881   0.944491582380119   0.125040414364782   1.0000000
B2   B   0.722086852286455   0.444343174290867   0.625318445851449   1.0000000
B2   B   0.388902872243689   0.944536604644692   0.125092911336792   1.0000000
B2   B   0.222258230396350   0.444384189940365   0.125215566843164   1.0000000
B2   B   0.222300399067666   0.611097127756313   0.125092911336792   1.0000000
B2   B   0.555555555555557   0.444444444444443   0.123815088516367   1.0000000
B2   B   0.722232882586896   0.944483868757757   0.124979318683470   1.0000000
B2   B   0.888792626210680   0.444384189940365   0.125215566843164   1.0000000
B2   B   0.055463395355309   0.611097127756313   0.624907088663207   1.0000000
B2   B   0.222258230396350   0.111207373789321   0.624784433156836   1.0000000
B2   B   0.722086852286455   0.611077011328925   0.625318445851449   1.0000000
B2   B   0.555615810059634   0.111207373789321   0.624784433156836   1.0000000
B2   B   0.888888888888886   0.111111111111114   0.625063472589125   1.0000000


