data_1
_audit_creation_method   'vasp2cif'
_cell_length_a    14.93631414619966
_cell_length_b    14.936314146199727
_cell_length_c    13.341276283792837
_cell_angle_alpha    90.0
_cell_angle_beta    90.0
_cell_angle_gamma    119.99999999999984

_symmetry_space_group_name_H-M    'P 1'
loop_
_atom_site_label
_atom_site_type_symbol
_atom_site_fract_x
_atom_site_fract_y
_atom_site_fract_z
_atom_site_occupancy
As2   As   0.444444444444443   0.388888888888886   0.375000000000000   1.0000000
N2   N   0.111152698392672   0.055612334470022   0.125395803114823   1.0000000
N2   N   0.611015522051119   0.555462060438631   0.122697325291114   1.0000000
N2   N   0.444459636077320   0.055612334470022   0.125395803114823   1.0000000
N2   N   0.944418723831352   0.555536357590869   0.125353696633965   1.0000000
N2   N   0.777777777777779   0.055555555555557   0.124668425706567   1.0000000
N2   N   0.111111111111114   0.722222222222221   0.624803403190921   1.0000000
N2   N   0.444459636077320   0.722180634940624   0.624604196885176   1.0000000
N2   N   0.277871272894739   0.222317811282197   0.627302674708910   1.0000000
N2   N   0.777720998863308   0.722180634940624   0.624604196885176   1.0000000
N2   N   0.611096900293328   0.222236433039958   0.624963024338226   1.0000000
N2   N   0.944442004829842   0.222215328259599   0.624902702993223   1.0000000
N2   N   0.277796975742504   0.722215699573946   0.125353696633965   1.0000000
N2   N   0.111139532746591   0.222236433039966   0.125036975661735   1.0000000
N2   N   0.444446538387440   0.222317811282197   0.122697325291114   1.0000000
N2   N   0.611096900293328   0.722193800586675   0.125036975661735   1.0000000
N2   N   0.944418723831352   0.722215699573946   0.125353696633965   1.0000000
N2   N   0.777773323429714   0.222215328259599   0.125097297006775   1.0000000
N2   N   0.111117633759463   0.888914609501977   0.624646303365975   1.0000000
N2   N   0.444461159637884   0.888897246485681   0.624601363260137   1.0000000
N2   N   0.277871272894739   0.388886794945888   0.627302674708910   1.0000000
N2   N   0.611015522051119   0.388886794945888   0.627302674708910   1.0000000
N2   N   0.777773323429714   0.888891328503486   0.624902702993223   1.0000000
N2   N   0.944436086847648   0.388872173695444   0.624601363260137   1.0000000
N2   N   0.111152698392672   0.388873697256008   0.125395803114823   1.0000000
N2   N   0.277796975742504   0.888914609501977   0.125353696633965   1.0000000
N2   N   0.611118005073812   0.888891328503486   0.125097297006775   1.0000000
N2   N   0.444444444444443   0.388888888888886   0.110984920119392   1.0000000
N2   N   0.944436086847648   0.888897246485681   0.125398636739836   1.0000000
N2   N   0.777720998863308   0.388873697256008   0.125395803114823   1.0000000
N2   N   0.277804085987866   0.555529247345430   0.625002928244559   1.0000000
N2   N   0.111152698392672   0.055612334470022   0.624604196885176   1.0000000
N2   N   0.611015522051119   0.555462060438631   0.627302674708910   1.0000000
N2   N   0.444459636077320   0.055612334470022   0.624604196885176   1.0000000
N2   N   0.944418723831352   0.555536357590869   0.624646303365975   1.0000000
N2   N   0.111117633759463   0.555536357590869   0.125353696633965   1.0000000
N2   N   0.777777777777779   0.055555555555557   0.625331574293388   1.0000000
N2   N   0.277804085987866   0.055608171975762   0.124997071755366   1.0000000
N2   N   0.444446538387440   0.555462060438631   0.122697325291114   1.0000000
N2   N   0.777725161357604   0.555529247345430   0.124997071755366   1.0000000
N2   N   0.611118005073812   0.055560009903619   0.125097297006775   1.0000000
N2   N   0.444446538387440   0.555462060438631   0.627302674708910   1.0000000
N2   N   0.944442004829842   0.055560009903619   0.125097297006775   1.0000000
N2   N   0.277796975742504   0.722215699573946   0.624646303365975   1.0000000
N2   N   0.111139532746591   0.222236433039958   0.624963024338226   1.0000000
N2   N   0.444446538387440   0.222317811282197   0.627302674708910   1.0000000
N2   N   0.611096900293328   0.722193800586675   0.624963024338226   1.0000000
N2   N   0.944418723831352   0.722215699573946   0.624646303365975   1.0000000
N2   N   0.777773323429714   0.222215328259599   0.624902702993223   1.0000000
N2   N   0.111111111111114   0.722222222222221   0.125196596809108   1.0000000
N2   N   0.444459636077320   0.722180634940624   0.125395803114823   1.0000000
N2   N   0.277871272894739   0.222317811282197   0.122697325291114   1.0000000
N2   N   0.777720998863308   0.722180634940624   0.125395803114823   1.0000000
N2   N   0.611096900293328   0.222236433039966   0.125036975661735   1.0000000
N2   N   0.944442004829842   0.222215328259599   0.125097297006775   1.0000000
N2   N   0.111152698392672   0.388873697256008   0.624604196885176   1.0000000
N2   N   0.277796975742504   0.888914609501977   0.624646303365975   1.0000000
N2   N   0.611118005073812   0.888891328503486   0.624902702993223   1.0000000
N2   N   0.444444444444443   0.388888888888886   0.639015079880559   1.0000000
N2   N   0.944436086847648   0.888897246485681   0.624601363260137   1.0000000
N2   N   0.111117633759463   0.888914609501977   0.125353696633965   1.0000000
N2   N   0.777720998863308   0.388873697256008   0.624604196885176   1.0000000
N2   N   0.444461159637884   0.888897246485681   0.125398636739836   1.0000000
N2   N   0.277871272894739   0.388886794945888   0.122697325291114   1.0000000
N2   N   0.277804085987866   0.555529247345430   0.124997071755366   1.0000000
N2   N   0.611015522051119   0.388886794945888   0.122697325291114   1.0000000
N2   N   0.777773323429714   0.888891328503486   0.125097297006775   1.0000000
N2   N   0.944436086847648   0.388872173695435   0.125398636739836   1.0000000
N2   N   0.111117633759463   0.555536357590869   0.624646303365975   1.0000000
N2   N   0.277804085987866   0.055608171975762   0.625002928244559   1.0000000
N2   N   0.777725161357604   0.555529247345430   0.625002928244559   1.0000000
N2   N   0.611118005073812   0.055560009903619   0.624902702993223   1.0000000
N2   N   0.944442004829842   0.055560009903619   0.624902702993223   1.0000000
N2   N   0.054389545947850   0.110347846270964   0.375000000000000   1.0000000
N2   N   0.556003989369786   0.612007978739631   0.375000000000000   1.0000000
N2   N   0.387294736975834   0.103302499388473   0.375000000000000   1.0000000
N2   N   0.891740958974198   0.612537146153738   0.375000000000000   1.0000000
N2   N   0.722435718179384   0.110897615153963   0.375000000000000   1.0000000
N2   N   0.055558351744380   0.777774981588984   0.875000000000000   1.0000000
N2   N   0.388879648451339   0.777779250265378   0.875000000000000   1.0000000
N2   N   0.222217703581335   0.277775518457345   0.875000000000000   1.0000000
N2   N   0.722227456374406   0.777773960383451   0.875000000000000   1.0000000
N2   N   0.555557814876039   0.277775518457345   0.875000000000000   1.0000000
N2   N   0.888893964414010   0.277787928827932   0.875000000000000   1.0000000
N2   N   0.221647984388406   0.777490658860897   0.375000000000000   1.0000000
N2   N   0.054389545947849   0.277375033010223   0.375000000000000   1.0000000
N2   N   0.375555645079977   0.251111290160001   0.375000000000000   1.0000000
N2   N   0.555958300323109   0.778943787385399   0.375000000000000   1.0000000
N2   N   0.891079475986938   0.779489202677587   0.375000000000000   1.0000000
N2   N   0.722985487062319   0.277375033010223   0.375000000000000   1.0000000
N2   N   0.055554083067961   0.944433731519270   0.875000000000000   1.0000000
N2   N   0.388879648451339   0.944433731519270   0.875000000000000   1.0000000
N2   N   0.222207827562304   0.444459075369813   0.875000000000000   1.0000000
N2   N   0.555623613057118   0.444478473195223   0.875000000000000   1.0000000
N2   N   0.722219592286192   0.944439184572326   0.875000000000000   1.0000000
N2   N   0.888899601814058   0.444453684881990   0.875000000000000   1.0000000
N2   N   0.053844130655744   0.444923606642722   0.375000000000000   1.0000000
N2   N   0.220796187179558   0.941592374359130   0.375000000000000   1.0000000
N2   N   0.555885325837086   0.944609329585287   0.375000000000000   1.0000000
N2   N   0.375555645079977   0.457777688253352   0.375000000000000   1.0000000
N2   N   0.888724003748042   0.944609329585287   0.375000000000000   1.0000000
N2   N   0.730030833944862   0.446038596357495   0.375000000000000   1.0000000
N2   N   0.222212074066819   0.611121259266534   0.875000000000000   1.0000000
N2   N   0.055559372949864   0.111105876958874   0.875000000000000   1.0000000
N2   N   0.555557814876039   0.611115629751981   0.875000000000000   1.0000000
N2   N   0.388874257963516   0.111082085525848   0.875000000000000   1.0000000
N2   N   0.888909185199776   0.611121259266534   0.875000000000000   1.0000000
N2   N   0.055842674472467   0.611685348944952   0.375000000000000   1.0000000
N2   N   0.722219592286192   0.111113741047168   0.875000000000000   1.0000000
N2   N   0.216007762412634   0.103302499388473   0.375000000000000   1.0000000
N2   N   0.387294736975834   0.617325570920814   0.375000000000000   1.0000000
N2   N   0.730030833944862   0.617325570920814   0.375000000000000   1.0000000
N2   N   0.555958300323109   0.110347846270957   0.375000000000000   1.0000000
N2   N   0.388874257963516   0.611125505771006   0.875000000000000   1.0000000
N2   N   0.888461896974610   0.110897615153963   0.375000000000000   1.0000000
N2   N   0.222216629844576   0.777774981588984   0.875000000000000   1.0000000
N2   N   0.055559372949864   0.277786829324319   0.875000000000000   1.0000000
N2   N   0.388854860138105   0.277709720276140   0.875000000000000   1.0000000
N2   N   0.555546504009027   0.777773960383451   0.875000000000000   1.0000000
N2   N   0.888899601814058   0.777779250265378   0.875000000000000   1.0000000
N2   N   0.722227456374406   0.277786829324319   0.875000000000000   1.0000000
N2   N   0.055842674472467   0.777490658860897   0.375000000000000   1.0000000
N2   N   0.388409726690606   0.779489202677587   0.375000000000000   1.0000000
N2   N   0.221325354593711   0.277329343963520   0.375000000000000   1.0000000
N2   N   0.722985487062319   0.778943787385399   0.375000000000000   1.0000000
N2   N   0.556003989369786   0.277329343963520   0.375000000000000   1.0000000
N2   N   0.888724003748042   0.277448007496278   0.375000000000000   1.0000000
N2   N   0.055554083067961   0.444453684881990   0.875000000000000   1.0000000
N2   N   0.222212074066819   0.944424148133552   0.875000000000000   1.0000000
N2   N   0.555545404505506   0.944439368919319   0.875000000000000   1.0000000
N2   N   0.388854860138105   0.444478473195223   0.875000000000000   1.0000000
N2   N   0.888893964414010   0.944439368919319   0.875000000000000   1.0000000
N2   N   0.053844130655748   0.942253857346391   0.375000000000000   1.0000000
N2   N   0.722251247807467   0.444459075369813   0.875000000000000   1.0000000
N2   N   0.388409726690606   0.942253857346391   0.375000000000000   1.0000000
N2   N   0.216007762412634   0.446038596357495   0.375000000000000   1.0000000
N2   N   0.220796187179558   0.612537146153738   0.375000000000000   1.0000000
N2   N   0.582222043173375   0.457777688253352   0.375000000000000   1.0000000
N2   N   0.722435718179384   0.944871436358719   0.375000000000000   1.0000000
N2   N   0.891079475986938   0.444923606642722   0.375000000000000   1.0000000
N2   N   0.055558351744380   0.611116703488671   0.875000000000000   1.0000000
N2   N   0.222207827562304   0.111082085525848   0.875000000000000   1.0000000
N2   N   0.722251247807467   0.611125505771006   0.875000000000000   1.0000000
N2   N   0.555546504009027   0.111105876958874   0.875000000000000   1.0000000
N2   N   0.888894148761002   0.111113741047168   0.875000000000000   1.0000000
B2   B   0.107380433127725   0.051950899842015   0.375000000000000   1.0000000
B2   B   0.620435448483428   0.562894779549234   0.375000000000000   1.0000000
B2   B   0.444570466714292   0.051950899842015   0.375000000000000   1.0000000
B2   B   0.945646231548737   0.555920844623231   0.375000000000000   1.0000000
B2   B   0.777777777777779   0.055555555555557   0.375000000000000   1.0000000
B2   B   0.111111111111114   0.722222222222221   0.875000000000000   1.0000000
B2   B   0.444422496035245   0.722166224286331   0.875000000000000   1.0000000
B2   B   0.277871785742391   0.222284019058664   0.875000000000000   1.0000000
B2   B   0.777743728251149   0.722166224286331   0.875000000000000   1.0000000
B2   B   0.611062770303339   0.222270563029985   0.875000000000000   1.0000000
B2   B   0.944485107273248   0.222250069439870   0.875000000000000   1.0000000
B2   B   0.277412488710151   0.723058720258933   0.375000000000000   1.0000000
B2   B   0.110532953415858   0.221933143374600   0.375000000000000   1.0000000
B2   B   0.442459331065800   0.212897884849904   0.375000000000000   1.0000000
B2   B   0.611400189958733   0.722800379917511   0.375000000000000   1.0000000
B2   B   0.945646231548737   0.723058720258933   0.375000000000000   1.0000000
B2   B   0.777830209890629   0.221771319640989   0.375000000000000   1.0000000
B2   B   0.111123404372375   0.888900543151237   0.875000000000000   1.0000000
B2   B   0.444424110674695   0.888878722003988   0.875000000000000   1.0000000
B2   B   0.277871785742391   0.388921100017063   0.875000000000000   1.0000000
B2   B   0.611049314274652   0.388921100017063   0.875000000000000   1.0000000
B2   B   0.777764962166561   0.888848226060080   0.875000000000000   1.0000000
B2   B   0.944454611329341   0.388909222658633   0.875000000000000   1.0000000
B2   B   0.107380433127725   0.388762866619036   0.375000000000000   1.0000000
B2   B   0.277412488710151   0.887687101784591   0.375000000000000   1.0000000
B2   B   0.611562013692330   0.889392223582951   0.375000000000000   1.0000000
B2   B   0.944280161603342   0.889053171729987   0.375000000000000   1.0000000
B2   B   0.781382433491354   0.388762866619036   0.375000000000000   1.0000000
B2   B   0.277798323245132   0.555535010088251   0.875000000000000   1.0000000
B2   B   0.111167109047009   0.055589605082206   0.875000000000000   1.0000000
B2   B   0.611049314274652   0.555461547590862   0.875000000000000   1.0000000
B2   B   0.444422496035245   0.055589605082206   0.875000000000000   1.0000000
B2   B   0.944432790182092   0.555556194554427   0.875000000000000   1.0000000
B2   B   0.110274613074423   0.555920844623231   0.375000000000000   1.0000000
B2   B   0.777777777777779   0.055555555555557   0.875000000000000   1.0000000
B2   B   0.275800310049953   0.051600620099899   0.375000000000000   1.0000000
B2   B   0.442459331065800   0.562894779549234   0.375000000000000   1.0000000
B2   B   0.781732713233430   0.557533023283405   0.375000000000000   1.0000000
B2   B   0.611562013692330   0.055503123442735   0.375000000000000   1.0000000
B2   B   0.444412233316266   0.555461547590862   0.875000000000000   1.0000000
B2   B   0.943941109750377   0.055503123442735   0.375000000000000   1.0000000
B2   B   0.277777138778903   0.722209928960955   0.875000000000000   1.0000000
B2   B   0.111207792726668   0.222270563029985   0.875000000000000   1.0000000
B2   B   0.444412233316266   0.222284019058664   0.875000000000000   1.0000000
B2   B   0.611062770303339   0.722125540606650   0.875000000000000   1.0000000
B2   B   0.944432790182092   0.722209928960955   0.875000000000000   1.0000000
B2   B   0.777764962166561   0.222250069439870   0.875000000000000   1.0000000
B2   B   0.111111111111114   0.722222222222221   0.375000000000000   1.0000000
B2   B   0.444570466714292   0.725952900205606   0.375000000000000   1.0000000
B2   B   0.270438553784102   0.212897884849904   0.375000000000000   1.0000000
B2   B   0.781382433491354   0.725952900205606   0.375000000000000   1.0000000
B2   B   0.611400189958733   0.221933143374600   0.375000000000000   1.0000000
B2   B   0.943941109750377   0.221771319640989   0.375000000000000   1.0000000
B2   B   0.111167109047009   0.388910837298084   0.875000000000000   1.0000000
B2   B   0.277777138778903   0.888900543151237   0.875000000000000   1.0000000
B2   B   0.611083263893456   0.888848226060080   0.875000000000000   1.0000000
B2   B   0.444444444444443   0.388888888888886   0.875000000000000   1.0000000
B2   B   0.944454611329341   0.888878722003988   0.875000000000000   1.0000000
B2   B   0.110274613074423   0.887687101784591   0.375000000000000   1.0000000
B2   B   0.777743728251149   0.388910837298084   0.875000000000000   1.0000000
B2   B   0.444773010126591   0.889053171729987   0.375000000000000   1.0000000
B2   B   0.270438553784102   0.390874002267528   0.375000000000000   1.0000000
B2   B   0.275800310049953   0.557533023283405   0.375000000000000   1.0000000
B2   B   0.620435448483428   0.390874002267528   0.375000000000000   1.0000000
B2   B   0.777830209890629   0.889392223582951   0.375000000000000   1.0000000
B2   B   0.944280161603342   0.388560323206738   0.375000000000000   1.0000000
B2   B   0.111123404372375   0.555556194554427   0.875000000000000   1.0000000
B2   B   0.277798323245132   0.055596646490264   0.875000000000000   1.0000000
B2   B   0.777736686843072   0.555535010088251   0.875000000000000   1.0000000
B2   B   0.611083263893456   0.055568371166812   0.875000000000000   1.0000000
B2   B   0.944485107273248   0.055568371166812   0.875000000000000   1.0000000
B2   B   0.055659512746134   0.111218251503734   0.125395415325497   1.0000000
B2   B   0.555413929752788   0.610827859505680   0.123832206213852   1.0000000
B2   B   0.388988595438931   0.111456093640650   0.124865970191706   1.0000000
B2   B   0.888714065400689   0.611023699367069   0.125453058556480   1.0000000
B2   B   0.722207710497588   0.111125622835814   0.125036062941719   1.0000000
B2   B   0.055528774109503   0.777804559223828   0.624576101327128   1.0000000
B2   B   0.388948978556212   0.777725559247681   0.624418317128065   1.0000000
B2   B   0.222505473827655   0.277919403580495   0.626167793786089   1.0000000
B2   B   0.722115081829635   0.777673820587220   0.624604584674533   1.0000000
B2   B   0.555413929752788   0.277919403580495   0.626167793786089   1.0000000
B2   B   0.888877862811729   0.277755725623505   0.624658137249156   1.0000000
B2   B   0.222275785114316   0.777804559223828   0.125423898672909   1.0000000
B2   B   0.055659512746134   0.277774594575746   0.125395415325497   1.0000000
B2   B   0.389205605820685   0.278411211641370   0.119978634320312   1.0000000
B2   B   0.555558738757513   0.777673820587220   0.125395415325497   1.0000000
B2   B   0.888776580691465   0.777725559247681   0.125581682871886   1.0000000
B2   B   0.722115081829635   0.277774594575746   0.125395415325497   1.0000000
B2   B   0.055607774085652   0.944556752641864   0.624418317128065   1.0000000
B2   B   0.388948978556212   0.944556752641864   0.624418317128065   1.0000000
B2   B   0.222467498201726   0.444344737894397   0.625134029808246   1.0000000
B2   B   0.554922121691959   0.444127727512644   0.630021365679602   1.0000000
B2   B   0.722207710497588   0.944415420995057   0.624963937058312   1.0000000
B2   B   0.888776580691465   0.444384354777117   0.624418317128065   1.0000000
B2   B   0.055607774085652   0.444384354777117   0.125581682871886   1.0000000
B2   B   0.222309633966307   0.944619267932640   0.125453058556480   1.0000000
B2   B   0.555577607709873   0.944455470521600   0.125341862750866   1.0000000
B2   B   0.389205605820685   0.444127727512644   0.119978634320312   1.0000000
B2   B   0.888877862811729   0.944455470521600   0.125341862750866   1.0000000
B2   B   0.721877239692692   0.444344737894397   0.124865970191706   1.0000000
B2   B   0.222309633966307   0.611023699367069   0.624546941443496   1.0000000
B2   B   0.055659512746134   0.111218251503734   0.624604584674533   1.0000000
B2   B   0.555413929752788   0.610827859505680   0.626167793786089   1.0000000
B2   B   0.388988595438931   0.111456093640650   0.625134029808246   1.0000000
B2   B   0.888714065400689   0.611023699367069   0.624546941443496   1.0000000
B2   B   0.055528774109503   0.611057548219003   0.125423898672909   1.0000000
B2   B   0.722207710497588   0.111125622835814   0.624963937058312   1.0000000
B2   B   0.222467498201726   0.111456093640650   0.124865970191706   1.0000000
B2   B   0.388988595438931   0.610865835131606   0.124865970191706   1.0000000
B2   B   0.721877239692692   0.610865835131606   0.124865970191706   1.0000000
B2   B   0.555558738757513   0.111218251503734   0.125395415325497   1.0000000
B2   B   0.388988595438931   0.610865835131606   0.625134029808246   1.0000000
B2   B   0.888917912338271   0.111125622835814   0.125036062941719   1.0000000
B2   B   0.222275785114316   0.777804559223828   0.624576101327128   1.0000000
B2   B   0.055659512746134   0.277774594575746   0.624604584674533   1.0000000
B2   B   0.389205605820685   0.278411211641370   0.630021365679635   1.0000000
B2   B   0.555558738757513   0.777673820587220   0.624604584674533   1.0000000
B2   B   0.888776580691465   0.777725559247681   0.624418317128065   1.0000000
B2   B   0.722115081829635   0.277774594575746   0.624604584674533   1.0000000
B2   B   0.055528774109503   0.777804559223828   0.125423898672909   1.0000000
B2   B   0.388948978556212   0.777725559247681   0.125581682871886   1.0000000
B2   B   0.222505473827655   0.277919403580495   0.123832206213852   1.0000000
B2   B   0.722115081829635   0.777673820587220   0.125395415325497   1.0000000
B2   B   0.555413929752788   0.277919403580495   0.123832206213852   1.0000000
B2   B   0.888877862811729   0.277755725623505   0.125341862750866   1.0000000
B2   B   0.055607774085652   0.444384354777117   0.624418317128065   1.0000000
B2   B   0.222309633966307   0.944619267932640   0.624546941443496   1.0000000
B2   B   0.555577607709873   0.944455470521600   0.624658137249156   1.0000000
B2   B   0.389205605820685   0.444127727512644   0.630021365679635   1.0000000
B2   B   0.888877862811729   0.944455470521600   0.624658137249156   1.0000000
B2   B   0.055607774085652   0.944556752641864   0.125581682871886   1.0000000
B2   B   0.721877239692692   0.444344737894397   0.625134029808246   1.0000000
B2   B   0.388948978556212   0.944556752641864   0.125581682871886   1.0000000
B2   B   0.222467498201726   0.444344737894397   0.124865970191706   1.0000000
B2   B   0.222309633966307   0.611023699367069   0.125453058556480   1.0000000
B2   B   0.554922121691959   0.444127727512644   0.119978634320312   1.0000000
B2   B   0.722207710497588   0.944415420995057   0.125036062941719   1.0000000
B2   B   0.888776580691465   0.444384354777117   0.125581682871886   1.0000000
B2   B   0.055528774109503   0.611057548219003   0.624576101327128   1.0000000
B2   B   0.222467498201726   0.111456093640650   0.625134029808246   1.0000000
B2   B   0.721877239692692   0.610865835131606   0.625134029808246   1.0000000
B2   B   0.555558738757513   0.111218251503734   0.624604584674533   1.0000000
B2   B   0.888917912338271   0.111125622835814   0.624963937058312   1.0000000


