data_1
_audit_creation_method   'vasp2cif'
_cell_length_a    17.52789999999977
_cell_length_b    17.52789999999977
_cell_length_c    15.0
_cell_angle_alpha    90.0
_cell_angle_beta    90.0
_cell_angle_gamma    119.99999999999916

_symmetry_space_group_name_H-M    'P 1'
loop_
_atom_site_label
_atom_site_type_symbol
_atom_site_fract_x
_atom_site_fract_y
_atom_site_fract_z
_atom_site_occupancy
B2   B   0.905393450503304   0.953396003908566   0.111307526895239   1.0000000
B2   B   0.904267193265767   0.095734827930237   0.108843498733393   1.0000000
B2   B   0.903878911610150   0.238524539867356   0.109213071236141   1.0000000
B2   B   0.903957021402434   0.381388491252594   0.111170654231167   1.0000000
B2   B   0.904761626003456   0.524287938762043   0.113240823392445   1.0000000
B2   B   0.905947571393121   0.667459478544096   0.114523950070186   1.0000000
B2   B   0.906441069326981   0.810960622258783   0.114850328130657   1.0000000
B2   B   0.047742825870316   0.952259195325681   0.111696023770541   1.0000000
B2   B   0.046606017287438   0.094608570692678   0.111307526895239   1.0000000
B2   B   0.046280450217324   0.237713220598863   0.110729038208774   1.0000000
B2   B   0.046600916754237   0.380881404538584   0.111245960615925   1.0000000
B2   B   0.047478873588574   0.523813930049101   0.110964204680805   1.0000000
B2   B   0.048208997916994   0.666691989665580   0.111423485431999   1.0000000
B2   B   0.048306117967620   0.809612547572023   0.112075046731611   1.0000000
B2   B   0.190389473623966   0.951695903228384   0.112075046731611   1.0000000
B2   B   0.189041398937228   0.093560951869016   0.114850328130657   1.0000000
B2   B   0.187638625741293   0.235646895900565   0.115210482819705   1.0000000
B2   B   0.188522998507949   0.379812639569408   0.115772629544445   1.0000000
B2   B   0.190190013706037   0.523310030284030   0.113914318811943   1.0000000
B2   B   0.191021159353866   0.666273401746047   0.110773244718388   1.0000000
B2   B   0.190882456137302   0.809119565058694   0.110277656308860   1.0000000
B2   B   0.333310031531426   0.951793023279009   0.111423485431999   1.0000000
B2   B   0.332542542652916   0.094054449802876   0.114523950070186   1.0000000
B2   B   0.330042900321459   0.234544001993555   0.115254257597520   1.0000000
B2   B   0.327890451081849   0.376103673795889   0.115295523709364   1.0000000
B2   B   0.332637617040007   0.522079370262091   0.120537284358576   1.0000000
B2   B   0.334164336593304   0.665837684603694   0.115571510278549   1.0000000
B2   B   0.333728619450952   0.808980861842137   0.110773244718388   1.0000000
B2   B   0.476188091147897   0.952523147607423   0.110964204680805   1.0000000
B2   B   0.475714082434948   0.095240395192526   0.113240823392445   1.0000000
B2   B   0.474933073164507   0.237688970399510   0.112558775270372   1.0000000
B2   B   0.467458208066432   0.372472353385746   0.084780625074366   1.0000000
B2   B   0.477922650934900   0.667364404156991   0.120537284358576   1.0000000
B2   B   0.476691990912968   0.809812007489953   0.113914318811943   1.0000000
B2   B   0.619120616657419   0.953401104441767   0.111245960615925   1.0000000
B2   B   0.618613529943431   0.096044999793556   0.111170654231167   1.0000000
B2   B   0.618197596348537   0.239021540906982   0.112809993813116   1.0000000
B2   B   0.617694687742180   0.382307333453831   0.105677776526470   1.0000000
B2   B   0.627529667810258   0.532543813130566   0.084780625074366   1.0000000
B2   B   0.623898347400122   0.672111570115142   0.115295523709364   1.0000000
B2   B   0.620189381626595   0.811479022688047   0.115772629544445   1.0000000
B2   B   0.762288800597126   0.953721570978686   0.110729038208774   1.0000000
B2   B   0.761477481328647   0.096123109585861   0.109213071236141   1.0000000
B2   B   0.761112768978741   0.238889252217263   0.111280810298375   1.0000000
B2   B   0.760980480289014   0.381804424847474   0.112809993813116   1.0000000
B2   B   0.762313050796500   0.525068948032491   0.112558775270372   1.0000000
B2   B   0.765458019202441   0.669959120875554   0.115254257597520   1.0000000
B2   B   0.764355125295445   0.812363395454703   0.115210482819705   1.0000000
N2   N   0.953030592250407   0.905661595373275   0.112118848320904   1.0000000
N2   N   0.951928092973034   0.048073308944964   0.110216225728060   1.0000000
N2   N   0.951366802942516   0.190740652489815   0.108475554479149   1.0000000
N2   N   0.951447113092776   0.333652123141377   0.109908875345418   1.0000000
N2   N   0.952142068634160   0.476529531882264   0.111460090550146   1.0000000
N2   N   0.953030097000308   0.619440179922158   0.113331410242516   1.0000000
N2   N   0.953382109992553   0.762609152640550   0.114148763770132   1.0000000
N2   N   0.095395940290182   0.904605461627831   0.111373322009761   1.0000000
N2   N   0.094339806544717   0.046970809667599   0.112118848320904   1.0000000
N2   N   0.093197510649333   0.189331967821232   0.111791092378453   1.0000000
N2   N   0.093679454330584   0.332861341284548   0.112422298713852   1.0000000
N2   N   0.094901330422552   0.476062967361436   0.111620093876297   1.0000000
N2   N   0.095680689765594   0.618948952953993   0.110245321170986   1.0000000
N2   N   0.095760189616080   0.761813020859108   0.111047621300699   1.0000000
N2   N   0.238188381058883   0.904241212301919   0.111047621300699   1.0000000
N2   N   0.237392249277462   0.046619291925460   0.114148763770132   1.0000000
N2   N   0.235426329098878   0.188126870747659   0.117567985189503   1.0000000
N2   N   0.234010819455271   0.330251552461483   0.116679097755466   1.0000000
N2   N   0.237277102622812   0.475228257669734   0.117081541958420   1.0000000
N2   N   0.238684506800652   0.618551567371561   0.113042683387185   1.0000000
N2   N   0.238535251454351   0.761466150463676   0.109765238267947   1.0000000
N2   N   0.381052448963992   0.904320712152405   0.110245321170986   1.0000000
N2   N   0.380561221995862   0.046971304917683   0.113331410242516   1.0000000
N2   N   0.379545201973684   0.189006783743103   0.114849273329703   1.0000000
N2   N   0.375700453949172   0.328681236514761   0.108147533983399   1.0000000
N2   N   0.375771754834297   0.470219708743720   0.122658719576727   1.0000000
N2   N   0.382009413470804   0.617991988447194   0.120477526879135   1.0000000
N2   N   0.381449834546437   0.761316895117361   0.113042683387185   1.0000000
N2   N   0.523938434555554   0.905100071495447   0.111620093876297   1.0000000
N2   N   0.523471870034733   0.047859333283846   0.111460090550146   1.0000000
N2   N   0.523002563179531   0.190639833526632   0.114161368832875   1.0000000
N2   N   0.521701415449002   0.333005692692943   0.104376481760894   1.0000000
N2   N   0.529781693173277   0.624229647083702   0.122658719576727   1.0000000
N2   N   0.524773144247249   0.762724299295186   0.117081541958420   1.0000000
N2   N   0.667140060632462   0.906321947587408   0.112422298713852   1.0000000
N2   N   0.666349278775627   0.048554288825223   0.109908875345418   1.0000000
N2   N   0.665911131674939   0.191375402208038   0.112144792374579   1.0000000
N2   N   0.665421085521302   0.334580316395702   0.111876216797249   1.0000000
N2   N   0.666995709224047   0.478299986468009   0.104376481760894   1.0000000
N2   N   0.671320165402250   0.624300947968813   0.108147533983391   1.0000000
N2   N   0.669749849455521   0.765990582462734   0.116679097755466   1.0000000
N2   N   0.810669434096774   0.906803891268659   0.111791092378453   1.0000000
N2   N   0.809260749428176   0.048634598975504   0.108475554479149   1.0000000
N2   N   0.808755649049530   0.191245752868475   0.109623626061357   1.0000000
N2   N   0.808625999709975   0.334090270242065   0.112144792374579   1.0000000
N2   N   0.809361568391353   0.476998838737465   0.114161368832875   1.0000000
N2   N   0.810994618174888   0.620456199944321   0.114849273329703   1.0000000
N2   N   0.811874531170332   0.764575072819135   0.117567985189503   1.0000000
Si2   Si   0.488078843470980   0.511923177726025   0.123169939726786   1.0000000
Si2   Si   0.528007985002795   0.471993416914188   0.990249281333448   1.0000000


