data_1
_audit_creation_method   'vasp2cif'
_cell_length_a    14.93631414619966
_cell_length_b    14.936314146199727
_cell_length_c    13.341276283792837
_cell_angle_alpha    90.0
_cell_angle_beta    90.0
_cell_angle_gamma    119.99999999999984

_symmetry_space_group_name_H-M    'P 1'
loop_
_atom_site_label
_atom_site_type_symbol
_atom_site_fract_x
_atom_site_fract_y
_atom_site_fract_z
_atom_site_occupancy
Sb2   Sb   0.555555555555557   0.444444444444443   0.375000000000000   1.0000000
N2   N   0.111086769277781   0.055544341084225   0.124978747401684   1.0000000
N2   N   0.611180044704441   0.555693422742246   0.122025940518087   1.0000000
N2   N   0.444447492315308   0.055563156804919   0.124915040774777   1.0000000
N2   N   0.944436843195018   0.555552507684666   0.124915040774777   1.0000000
N2   N   0.777791632251502   0.055562482792498   0.125059200890651   1.0000000
N2   N   0.111108280470408   0.722220806901795   0.624487679906184   1.0000000
N2   N   0.444447492315301   0.722217668843722   0.625084959225189   1.0000000
N2   N   0.277706252958872   0.222171694594294   0.626312861549645   1.0000000
N2   N   0.777828305405748   0.722293747041055   0.626312861549645   1.0000000
N2   N   0.611132108302081   0.222171694594294   0.626312861549645   1.0000000
N2   N   0.944437517207412   0.222208367748339   0.624940799109391   1.0000000
N2   N   0.277779193098108   0.722220806901795   0.125512320093766   1.0000000
N2   N   0.111076232487283   0.222204782910311   0.124669755489607   1.0000000
N2   N   0.444463418159699   0.222260169652703   0.123492124342121   1.0000000
N2   N   0.611132108302081   0.722293747041055   0.123687138450468   1.0000000
N2   N   0.944436843195018   0.722217668843722   0.124915040774777   1.0000000
N2   N   0.777795217089692   0.222204782910311   0.124669755489607   1.0000000
N2   N   0.111109218569300   0.888890781430700   0.624547521661729   1.0000000
N2   N   0.444448229528102   0.888890781430700   0.624547521661729   1.0000000
N2   N   0.277706252958872   0.388867891697822   0.626312861549645   1.0000000
N2   N   0.611180044704434   0.388819955295541   0.627974059481967   1.0000000
N2   N   0.777795217089692   0.888923767512696   0.625330244510277   1.0000000
N2   N   0.944455658915717   0.388875761526853   0.625021252598293   1.0000000
N2   N   0.111086769277781   0.388875761526853   0.124978747401684   1.0000000
N2   N   0.277779193098108   0.888891719529538   0.125512320093766   1.0000000
N2   N   0.611124238472863   0.888913230722197   0.124978747401684   1.0000000
N2   N   0.444306577257649   0.388819955295541   0.122025940518087   1.0000000
N2   N   0.944455658915717   0.888913230722197   0.124978747401684   1.0000000
N2   N   0.777828305405748   0.388867891697822   0.123687138450468   1.0000000
N2   N   0.277782331156224   0.555552507684666   0.625084959225189   1.0000000
N2   N   0.111086769277781   0.055544341084225   0.625021252598293   1.0000000
N2   N   0.611180044704441   0.555693422742246   0.627974059481967   1.0000000
N2   N   0.444447492315308   0.055563156804919   0.625084959225189   1.0000000
N2   N   0.944436843195018   0.555552507684666   0.625084959225189   1.0000000
N2   N   0.111109218569300   0.555551770471739   0.125452478338370   1.0000000
N2   N   0.777791632251502   0.055562482792498   0.624940799109391   1.0000000
N2   N   0.277782331156224   0.055563156804919   0.124915040774777   1.0000000
N2   N   0.444463418159692   0.555536581840336   0.123492124342121   1.0000000
N2   N   0.777739830347272   0.555536581840336   0.123492124342121   1.0000000
N2   N   0.611124238472863   0.055544341084225   0.124978747401684   1.0000000
N2   N   0.444463418159699   0.555536581840336   0.626507875657949   1.0000000
N2   N   0.944437517207412   0.055562482792498   0.125059200890651   1.0000000
N2   N   0.277779193098108   0.722220806901795   0.624487679906184   1.0000000
N2   N   0.111076232487283   0.222204782910311   0.625330244510277   1.0000000
N2   N   0.444463418159692   0.222260169652703   0.626507875657949   1.0000000
N2   N   0.611132108302081   0.722293747041055   0.626312861549645   1.0000000
N2   N   0.944436843195018   0.722217668843722   0.625084959225189   1.0000000
N2   N   0.777795217089692   0.222204782910311   0.625330244510277   1.0000000
N2   N   0.111108280470408   0.722220806901795   0.125512320093766   1.0000000
N2   N   0.444447492315308   0.722217668843722   0.124915040774777   1.0000000
N2   N   0.277706252958872   0.222171694594315   0.123687138450468   1.0000000
N2   N   0.777828305405748   0.722293747041055   0.123687138450476   1.0000000
N2   N   0.611132108302081   0.222171694594294   0.123687138450468   1.0000000
N2   N   0.944437517207412   0.222208367748339   0.125059200890651   1.0000000
N2   N   0.111086769277781   0.388875761526853   0.625021252598293   1.0000000
N2   N   0.277779193098108   0.888891719529538   0.624487679906184   1.0000000
N2   N   0.611124238472863   0.888913230722197   0.625021252598293   1.0000000
N2   N   0.444306577257649   0.388819955295541   0.627974059481967   1.0000000
N2   N   0.944455658915717   0.888913230722197   0.625021252598293   1.0000000
N2   N   0.111109218569300   0.888890781430700   0.125452478338370   1.0000000
N2   N   0.777828305405748   0.388867891697822   0.626312861549645   1.0000000
N2   N   0.444448229528102   0.888890781430700   0.125452478338370   1.0000000
N2   N   0.277706252958872   0.388867891697822   0.123687138450476   1.0000000
N2   N   0.277782331156224   0.555552507684666   0.124915040774777   1.0000000
N2   N   0.611180044704434   0.388819955295541   0.122025940518087   1.0000000
N2   N   0.777795217089692   0.888923767512696   0.124669755489607   1.0000000
N2   N   0.944455658915717   0.388875761526853   0.124978747401684   1.0000000
N2   N   0.111109218569300   0.555551770471739   0.624547521661729   1.0000000
N2   N   0.277782331156224   0.055563156804919   0.625084959225189   1.0000000
N2   N   0.777739830347272   0.555536581840336   0.626507875657949   1.0000000
N2   N   0.611124238472863   0.055544341084225   0.625021252598293   1.0000000
N2   N   0.944437517207412   0.055562482792498   0.624940799109391   1.0000000
N2   N   0.054023282677925   0.110078558215717   0.375000000000000   1.0000000
N2   N   0.556157323504513   0.623851898318568   0.375000000000000   1.0000000
N2   N   0.387174267988551   0.107681869310415   0.375000000000000   1.0000000
N2   N   0.892318130689562   0.612825732011683   0.375000000000000   1.0000000
N2   N   0.722721942204397   0.110078558215717   0.375000000000000   1.0000000
N2   N   0.055559842944352   0.777781006799263   0.875000000000000   1.0000000
N2   N   0.388887830521349   0.777781006799263   0.875000000000000   1.0000000
N2   N   0.222223823894561   0.277778578613986   0.875000000000000   1.0000000
N2   N   0.722221421386001   0.777776176105356   0.875000000000000   1.0000000
N2   N   0.555541367542355   0.277766523717768   0.875000000000000   1.0000000
N2   N   0.888888754903422   0.277778544105286   0.875000000000000   1.0000000
N2   N   0.222222222222221   0.777777777777779   0.375000000000000   1.0000000
N2   N   0.054023282677925   0.277278057795519   0.375000000000000   1.0000000
N2   N   0.376148101681463   0.265638758519132   0.375000000000000   1.0000000
N2   N   0.555027533656887   0.782840506868047   0.375000000000000   1.0000000
N2   N   0.894479639877886   0.782840506868040   0.375000000000000   1.0000000
N2   N   0.724706801422437   0.275293198577550   0.375000000000000   1.0000000
N2   N   0.055559240489847   0.944440759510224   0.875000000000000   1.0000000
N2   N   0.388887830521349   0.944440157055609   0.875000000000000   1.0000000
N2   N   0.222218515154050   0.444448654456153   0.875000000000000   1.0000000
N2   N   0.555555555555557   0.444444444444443   0.875000000000000   1.0000000
N2   N   0.722221455894774   0.944443544131337   0.875000000000000   1.0000000
N2   N   0.888896805968914   0.444448654456153   0.875000000000000   1.0000000
N2   N   0.055797671920997   0.444928677175322   0.375000000000000   1.0000000
N2   N   0.221681175897466   0.943046824974236   0.375000000000000   1.0000000
N2   N   0.555071322824581   0.944202328079126   0.375000000000000   1.0000000
N2   N   0.376148101681463   0.443842676495589   0.375000000000000   1.0000000
N2   N   0.889921441784298   0.945976717322042   0.375000000000000   1.0000000
N2   N   0.734361241480964   0.443842676495589   0.375000000000000   1.0000000
N2   N   0.222218993200957   0.611112169478549   0.875000000000000   1.0000000
N2   N   0.055556455868632   0.111111245096609   0.875000000000000   1.0000000
N2   N   0.555541367542355   0.611108177157859   0.875000000000000   1.0000000
N2   N   0.388886516000414   0.111106365334217   0.875000000000000   1.0000000
N2   N   0.888893634665830   0.611113483999664   0.875000000000000   1.0000000
N2   N   0.056953175025674   0.611967684256404   0.375000000000000   1.0000000
N2   N   0.722221455894774   0.111111245096609   0.875000000000000   1.0000000
N2   N   0.217159493132027   0.105520360122184   0.375000000000000   1.0000000
N2   N   0.387174267988551   0.612825732011683   0.375000000000000   1.0000000
N2   N   0.734361241480964   0.623851898318568   0.375000000000000   1.0000000
N2   N   0.555027533656887   0.105520360122184   0.375000000000000   1.0000000
N2   N   0.388886516000414   0.611113483999664   0.875000000000000   1.0000000
N2   N   0.888888888888886   0.111111111111114   0.375000000000000   1.0000000
N2   N   0.222222222222221   0.777777777777779   0.875000000000000   1.0000000
N2   N   0.055556455868632   0.277778544105286   0.875000000000000   1.0000000
N2   N   0.388891822842174   0.277766523717768   0.875000000000000   1.0000000
N2   N   0.555551345543702   0.777781484845868   0.875000000000000   1.0000000
N2   N   0.888896805968914   0.777781484845868   0.875000000000000   1.0000000
N2   N   0.722221421386001   0.277778578613986   0.875000000000000   1.0000000
N2   N   0.056953175025674   0.778318824102520   0.375000000000000   1.0000000
N2   N   0.388032315743576   0.778318824102520   0.375000000000000   1.0000000
N2   N   0.217253063821721   0.275293198577550   0.375000000000000   1.0000000
N2   N   0.724706801422437   0.782746936178242   0.375000000000000   1.0000000
N2   N   0.556157323504521   0.265638758519132   0.375000000000000   1.0000000
N2   N   0.889921441784184   0.277278057795519   0.375000000000000   1.0000000
N2   N   0.055559240489847   0.444451814313010   0.875000000000000   1.0000000
N2   N   0.222218993200957   0.944440157055609   0.875000000000000   1.0000000
N2   N   0.555548185686890   0.944440759510224   0.875000000000000   1.0000000
N2   N   0.388891822842174   0.444458632457640   0.875000000000000   1.0000000
N2   N   0.888888754903422   0.944443544131337   0.875000000000000   1.0000000
N2   N   0.055797671920997   0.944202328079126   0.375000000000000   1.0000000
N2   N   0.722233476282025   0.444458632457640   0.875000000000000   1.0000000
N2   N   0.388032315743576   0.943046824974236   0.375000000000000   1.0000000
N2   N   0.217159493132027   0.444972466343191   0.375000000000000   1.0000000
N2   N   0.221681175897466   0.611967684256362   0.375000000000000   1.0000000
N2   N   0.722721942204397   0.945976717322042   0.375000000000000   1.0000000
N2   N   0.894479639877886   0.444972466343191   0.375000000000000   1.0000000
N2   N   0.055559842944352   0.611112169478549   0.875000000000000   1.0000000
N2   N   0.222218515154050   0.111103194031182   0.875000000000000   1.0000000
N2   N   0.722233476282025   0.611108177157859   0.875000000000000   1.0000000
N2   N   0.555551345543702   0.111103194031182   0.875000000000000   1.0000000
N2   N   0.888888888888886   0.111111111111114   0.875000000000000   1.0000000
B2   B   0.108041327468902   0.053214530436259   0.375000000000000   1.0000000
B2   B   0.629383258758736   0.592099850850492   0.375000000000000   1.0000000
B2   B   0.443583954407116   0.052921866708986   0.375000000000000   1.0000000
B2   B   0.947078133290962   0.556416045592932   0.375000000000000   1.0000000
B2   B   0.778451128533650   0.055892230933417   0.375000000000000   1.0000000
B2   B   0.111109405068437   0.722221369200739   0.875000000000000   1.0000000
B2   B   0.444436153276218   0.722228578052010   0.875000000000000   1.0000000
B2   B   0.277765148325138   0.222211601657563   0.875000000000000   1.0000000
B2   B   0.777788398342376   0.722234851674892   0.875000000000000   1.0000000
B2   B   0.611113119998868   0.222211601657563   0.875000000000000   1.0000000
B2   B   0.944444797120196   0.222222927573610   0.875000000000000   1.0000000
B2   B   0.277400598393416   0.722599401606508   0.375000000000000   1.0000000
B2   B   0.107599002771628   0.220466168052472   0.375000000000000   1.0000000
B2   B   0.442066882517655   0.217467098368654   0.375000000000000   1.0000000
B2   B   0.612958246603497   0.732579303699637   0.375000000000000   1.0000000
B2   B   0.947078133290962   0.723995421031446   0.375000000000000   1.0000000
B2   B   0.779533831947684   0.220466168052472   0.375000000000000   1.0000000
B2   B   0.111111470604733   0.888888529395274   0.875000000000000   1.0000000
B2   B   0.444443725457231   0.888888529395274   0.875000000000000   1.0000000
B2   B   0.277765148325138   0.388886880000881   0.875000000000000   1.0000000
B2   B   0.611118996776431   0.388881003223630   0.875000000000000   1.0000000
B2   B   0.777783849933260   0.888901033199829   0.875000000000000   1.0000000
B2   B   0.944453647675788   0.388886025429239   0.875000000000000   1.0000000
B2   B   0.108041327468923   0.388160130365970   0.375000000000000   1.0000000
B2   B   0.277400598393416   0.888134530120161   0.375000000000000   1.0000000
B2   B   0.611839869633922   0.891958672531193   0.375000000000000   1.0000000
B2   B   0.407900149149447   0.370616741241415   0.375000000000000   1.0000000
B2   B   0.946785469563756   0.891958672531193   0.375000000000000   1.0000000
B2   B   0.786287723762645   0.387041753396540   0.375000000000000   1.0000000
B2   B   0.277771421947919   0.555563846723689   0.875000000000000   1.0000000
B2   B   0.111099044420073   0.055546352324182   0.875000000000000   1.0000000
B2   B   0.611118996776431   0.555571326886075   0.875000000000000   1.0000000
B2   B   0.444436153276218   0.055540908557425   0.875000000000000   1.0000000
B2   B   0.944459091442681   0.555563846723689   0.875000000000000   1.0000000
B2   B   0.111321120822701   0.555975574978650   0.375000000000000   1.0000000
B2   B   0.777777072426435   0.055555202879858   0.875000000000000   1.0000000
B2   B   0.276004578968546   0.052921866708986   0.375000000000000   1.0000000
B2   B   0.442066882517655   0.557933117482398   0.375000000000000   1.0000000
B2   B   0.782532901631354   0.557933117482398   0.375000000000000   1.0000000
B2   B   0.611839869633922   0.053214530436259   0.375000000000000   1.0000000
B2   B   0.444435077746964   0.555564922253064   0.875000000000000   1.0000000
B2   B   0.944107769066719   0.055892230933417   0.375000000000000   1.0000000
B2   B   0.277778630799078   0.722221369200739   0.875000000000000   1.0000000
B2   B   0.111098966800027   0.222216150066657   0.875000000000000   1.0000000
B2   B   0.444435077746964   0.222203488827342   0.875000000000000   1.0000000
B2   B   0.611113119998868   0.722234851674892   0.875000000000000   1.0000000
B2   B   0.944459091442681   0.722228578052010   0.875000000000000   1.0000000
B2   B   0.777783849933260   0.222216150066657   0.875000000000000   1.0000000
B2   B   0.111865469879824   0.722599401606508   0.375000000000000   1.0000000
B2   B   0.443583954407116   0.723995421031446   0.375000000000000   1.0000000
B2   B   0.267420696300501   0.213712276237293   0.375000000000000   1.0000000
B2   B   0.786287723762645   0.732579303699637   0.375000000000000   1.0000000
B2   B   0.612958246603497   0.213712276237293   0.375000000000000   1.0000000
B2   B   0.944107769066719   0.221548871466499   0.375000000000000   1.0000000
B2   B   0.111099044420073   0.388886025429239   0.875000000000000   1.0000000
B2   B   0.277778630799078   0.888890594931478   0.875000000000000   1.0000000
B2   B   0.611113974570717   0.888900955579958   0.875000000000000   1.0000000
B2   B   0.444428673113941   0.388881003223630   0.875000000000000   1.0000000
B2   B   0.944453647675788   0.888900955579958   0.875000000000000   1.0000000
B2   B   0.111321120822701   0.888678879177398   0.375000000000000   1.0000000
B2   B   0.777788398342376   0.388886880000881   0.875000000000000   1.0000000
B2   B   0.444024425021345   0.888678879177398   0.375000000000000   1.0000000
B2   B   0.267420696300522   0.387041753396540   0.375000000000000   1.0000000
B2   B   0.276004578968546   0.556416045592932   0.375000000000000   1.0000000
B2   B   0.629383258758736   0.370616741241415   0.375000000000000   1.0000000
B2   B   0.779533831947684   0.892400997228303   0.375000000000000   1.0000000
B2   B   0.946785469563756   0.388160130365970   0.375000000000000   1.0000000
B2   B   0.111111470604733   0.555556274542883   0.875000000000000   1.0000000
B2   B   0.277771421947919   0.055540908557425   0.875000000000000   1.0000000
B2   B   0.777796511172736   0.555564922253064   0.875000000000000   1.0000000
B2   B   0.611113974570717   0.055546352324182   0.875000000000000   1.0000000
B2   B   0.944444797120196   0.055555202879858   0.875000000000000   1.0000000
B2   B   0.055511416827283   0.111069904036757   0.124901316131443   1.0000000
B2   B   0.555614568378219   0.611252643171856   0.122714804845817   1.0000000
B2   B   0.388859691534985   0.111052716403186   0.124453370974649   1.0000000
B2   B   0.888947283596688   0.611140308464886   0.124453370974649   1.0000000
B2   B   0.722225153876247   0.111069904036757   0.124901316131443   1.0000000
B2   B   0.055557524485604   0.777766582799877   0.624663583101535   1.0000000
B2   B   0.388875724980848   0.777766582799877   0.624663583101535   1.0000000
B2   B   0.222146415934768   0.277739874633980   0.626120797174787   1.0000000
B2   B   0.722260125365973   0.777853584065377   0.626120797174787   1.0000000
B2   B   0.555614568378219   0.277695258539570   0.627285195154250   1.0000000
B2   B   0.888930095963241   0.277774846123876   0.625098683868561   1.0000000
B2   B   0.222222222222221   0.777777777777779   0.125529415186484   1.0000000
B2   B   0.055511416827283   0.277774846123876   0.124901316131443   1.0000000
B2   B   0.388747356828010   0.277695258539570   0.122714804845817   1.0000000
B2   B   0.555561580451260   0.777831289320554   0.124486720721055   1.0000000
B2   B   0.888936375535882   0.777831289320554   0.124486720721055   1.0000000
B2   B   0.722260125365973   0.277739874633980   0.123879202825282   1.0000000
B2   B   0.055540906113778   0.944459093886266   0.624838976440604   1.0000000
B2   B   0.388875724980848   0.944442475514442   0.624663583101535   1.0000000
B2   B   0.222168710679456   0.444438419548596   0.625513279278919   1.0000000
B2   B   0.555555555555557   0.444444444444443   0.627787934110717   1.0000000
B2   B   0.722225153876247   0.944488583172626   0.625098683868561   1.0000000
B2   B   0.888936375535882   0.444438419548596   0.625513279278919   1.0000000
B2   B   0.055540906113778   0.444415145560912   0.125161023559603   1.0000000
B2   B   0.222233417200249   0.944442475514442   0.125336416898496   1.0000000
B2   B   0.555584854439077   0.944459093886266   0.125161023559603   1.0000000
B2   B   0.388747356828017   0.444385431621808   0.122714804845817   1.0000000
B2   B   0.888930095963241   0.944488583172626   0.124901316131443   1.0000000
B2   B   0.722304741460236   0.444385431621808   0.122714804845817   1.0000000
B2   B   0.222233417200249   0.611124275019271   0.624663583101535   1.0000000
B2   B   0.055511416827283   0.111069904036757   0.625098683868561   1.0000000
B2   B   0.555614568378219   0.611252643171856   0.627285195154250   1.0000000
B2   B   0.388859691534985   0.111052716403186   0.625546629025323   1.0000000
B2   B   0.888947283596688   0.611140308464886   0.625546629025323   1.0000000
B2   B   0.055557524485604   0.611124275019271   0.125336416898496   1.0000000
B2   B   0.722225153876247   0.111069904036757   0.625098683868561   1.0000000
B2   B   0.222168710679456   0.111063624464121   0.124486720721055   1.0000000
B2   B   0.388859691534985   0.611140308464886   0.124453370974649   1.0000000
B2   B   0.722304741460236   0.611252643171856   0.122714804845817   1.0000000
B2   B   0.555561580451260   0.111063624464121   0.124486720721055   1.0000000
B2   B   0.388859691534985   0.611140308464886   0.625546629025323   1.0000000
B2   B   0.888888888888886   0.111111111111114   0.125046824484868   1.0000000
B2   B   0.222222222222221   0.777777777777779   0.624470584813505   1.0000000
B2   B   0.055511416827283   0.277774846123876   0.625098683868561   1.0000000
B2   B   0.388747356828010   0.277695258539570   0.627285195154250   1.0000000
B2   B   0.555561580451260   0.777831289320554   0.625513279278919   1.0000000
B2   B   0.888936375535882   0.777831289320554   0.625513279278919   1.0000000
B2   B   0.722260125365973   0.277739874633980   0.626120797174787   1.0000000
B2   B   0.055557524485604   0.777766582799877   0.125336416898496   1.0000000
B2   B   0.388875724980848   0.777766582799877   0.125336416898496   1.0000000
B2   B   0.222146415934768   0.277739874633980   0.123879202825282   1.0000000
B2   B   0.722260125365973   0.777853584065377   0.123879202825282   1.0000000
B2   B   0.555614568378219   0.277695258539570   0.122714804845817   1.0000000
B2   B   0.888930095963241   0.277774846123876   0.124901316131443   1.0000000
B2   B   0.055540906113778   0.444415145560912   0.624838976440604   1.0000000
B2   B   0.222233417200249   0.944442475514442   0.624663583101535   1.0000000
B2   B   0.555584854439077   0.944459093886266   0.624838976440604   1.0000000
B2   B   0.388747356828010   0.444385431621808   0.627285195154250   1.0000000
B2   B   0.888930095963241   0.944488583172626   0.625098683868561   1.0000000
B2   B   0.055540906113778   0.944459093886266   0.125161023559603   1.0000000
B2   B   0.722304741460236   0.444385431621808   0.627285195154250   1.0000000
B2   B   0.388875724980848   0.944442475514442   0.125336416898496   1.0000000
B2   B   0.222168710679456   0.444438419548596   0.124486720721055   1.0000000
B2   B   0.222233417200249   0.611124275019271   0.125336416898496   1.0000000
B2   B   0.555555555555557   0.444444444444443   0.122212065889147   1.0000000
B2   B   0.722225153876247   0.944488583172626   0.124901316131443   1.0000000
B2   B   0.888936375535882   0.444438419548596   0.124486720721055   1.0000000
B2   B   0.055557524485604   0.611124275019271   0.624663583101535   1.0000000
B2   B   0.222168710679456   0.111063624464121   0.625513279278919   1.0000000
B2   B   0.722304741460236   0.611252643171856   0.627285195154250   1.0000000
B2   B   0.555561580451260   0.111063624464121   0.625513279278919   1.0000000
B2   B   0.888888888888886   0.111111111111114   0.624953175515055   1.0000000


