data_1
_audit_creation_method   'vasp2cif'
_cell_length_a    17.52789999999977
_cell_length_b    17.52789999999977
_cell_length_c    15.0
_cell_angle_alpha    90.0
_cell_angle_beta    90.0
_cell_angle_gamma    119.99999999999916

_symmetry_space_group_name_H-M    'P 1'
loop_
_atom_site_label
_atom_site_type_symbol
_atom_site_fract_x
_atom_site_fract_y
_atom_site_fract_z
_atom_site_occupancy
B2   B   0.904934415823409   0.952686913526323   0.110744455370122   1.0000000
B2   B   0.904605606011858   0.095396415184138   0.109551921173158   1.0000000
B2   B   0.904480140379361   0.238235320779665   0.110187650659819   1.0000000
B2   B   0.904540944277567   0.381117497926216   0.112240613883393   1.0000000
B2   B   0.904931302254346   0.524020502590591   0.114121828734917   1.0000000
B2   B   0.905218765069064   0.666987569047180   0.113387136395651   1.0000000
B2   B   0.905234770254540   0.809950960450081   0.113139316671254   1.0000000
B2   B   0.047628116644511   0.952373904551493   0.111391717392817   1.0000000
B2   B   0.047315107669681   0.095067605372587   0.110744455370122   1.0000000
B2   B   0.047207012728321   0.237961841540815   0.110123935896990   1.0000000
B2   B   0.047276819278812   0.380930459152946   0.110289557317063   1.0000000
B2   B   0.047543433479706   0.523855078817080   0.110678324614662   1.0000000
B2   B   0.047814917050411   0.666743110540819   0.111054467824923   1.0000000
B2   B   0.047833883287039   0.809609295368659   0.111376124666549   1.0000000
B2   B   0.190392725827344   0.952168137908965   0.111376124666549   1.0000000
B2   B   0.190051060745922   0.094767250941456   0.113139316671254   1.0000000
B2   B   0.189676188828900   0.237387726452390   0.111431988222593   1.0000000
B2   B   0.189840059214219   0.380534235564179   0.111297139435357   1.0000000
B2   B   0.190182175668653   0.523739984351974   0.110556399261474   1.0000000
B2   B   0.190553183874628   0.666628573773119   0.110138995647511   1.0000000
B2   B   0.190551691416557   0.809450329779446   0.109890570493347   1.0000000
B2   B   0.333258910656179   0.952187104145592   0.111054467824923   1.0000000
B2   B   0.333014452149818   0.094783256126930   0.113387136395651   1.0000000
B2   B   0.332442875506063   0.237046858639694   0.112376635500327   1.0000000
B2   B   0.331902896651840   0.379324497239917   0.114124301104951   1.0000000
B2   B   0.332238428296112   0.523356453547238   0.119556140571309   1.0000000
B2   B   0.333427381199572   0.666574639997426   0.113936754989340   1.0000000
B2   B   0.333373447423878   0.809448837321376   0.110138995647511   1.0000000
B2   B   0.476146942379917   0.952458587716298   0.110678324614662   1.0000000
B2   B   0.475981518606407   0.095070718941651   0.114121828734917   1.0000000
B2   B   0.475795693487373   0.237544383772216   0.112679767756516   1.0000000
B2   B   0.471957001170272   0.374281620851742   0.082061074760769   1.0000000
B2   B   0.476645567649761   0.667763592900886   0.119556140571309   1.0000000
B2   B   0.476262036845025   0.809819845527349   0.110556399261474   1.0000000
B2   B   0.619071562043057   0.952725201917190   0.110289557317063   1.0000000
B2   B   0.618884523269789   0.095461076918429   0.112240613883393   1.0000000
B2   B   0.618771601337279   0.238288368398033   0.115109105318514   1.0000000
B2   B   0.618822064491254   0.381179956704749   0.105945854014588   1.0000000
B2   B   0.625720400344261   0.528045020026725   0.082061074760769   1.0000000
B2   B   0.620677523956088   0.668099124545157   0.114124301104951   1.0000000
B2   B   0.619467785631826   0.810161961981785   0.111297139435357   1.0000000
B2   B   0.762040179655188   0.952795008467682   0.110123935896990   1.0000000
B2   B   0.761766700416338   0.095521880816634   0.110187650659819   1.0000000
B2   B   0.761666071336197   0.238335949859806   0.112736178241416   1.0000000
B2   B   0.761713652797970   0.381230419858725   0.115109105318514   1.0000000
B2   B   0.762457637423787   0.524206327709625   0.112679767756516   1.0000000
B2   B   0.762955162556309   0.667559145690937   0.112376635500327   1.0000000
B2   B   0.762614294743613   0.810325832367103   0.111431988222593   1.0000000
N2   N   0.952536549056121   0.905043892301942   0.111589776760853   1.0000000
N2   N   0.952237457393130   0.047763944524876   0.109981705914462   1.0000000
N2   N   0.952076530558646   0.190562191415891   0.109527215662986   1.0000000
N2   N   0.952092740119068   0.333426962168464   0.110542755129723   1.0000000
N2   N   0.952364700113164   0.476301768296081   0.112260808017051   1.0000000
N2   N   0.952654498596609   0.619234590128239   0.112968238986289   1.0000000
N2   N   0.952698273436117   0.762188769672235   0.112805075468516   1.0000000
N2   N   0.095247916477337   0.904753485440661   0.111142482921169   1.0000000
N2   N   0.094957509616057   0.047464852861892   0.111589776760853   1.0000000
N2   N   0.094676927333860   0.190176573477220   0.110580351412496   1.0000000
N2   N   0.094787085331112   0.333186696930781   0.110572850212158   1.0000000
N2   N   0.095058582306564   0.476157869105845   0.109989668449329   1.0000000
N2   N   0.095357219851705   0.619063361631309   0.110128035871467   1.0000000
N2   N   0.095383687911791   0.761935265778106   0.110357046278155   1.0000000
N2   N   0.238066136139899   0.904617714006207   0.110357046278155   1.0000000
N2   N   0.237812632245778   0.047303128481888   0.112805075468516   1.0000000
N2   N   0.237368225041933   0.189852876695256   0.114211862255114   1.0000000
N2   N   0.237044554467138   0.332511273334139   0.111079288716992   1.0000000
N2   N   0.237652438841398   0.475937966387345   0.111327616330662   1.0000000
N2   N   0.238212555097108   0.618962438641164   0.111320357435113   1.0000000
N2   N   0.238178423462945   0.761822978455060   0.109694375164264   1.0000000
N2   N   0.380938040286689   0.904644182066293   0.110128035871467   1.0000000
N2   N   0.380766811789759   0.047346903321397   0.112968238986289   1.0000000
N2   N   0.380472096501922   0.189883324755891   0.113317840438613   1.0000000
N2   N   0.379664636393874   0.332042195466029   0.105775575262499   1.0000000
N2   N   0.377513239042647   0.473529752071133   0.129513828210227   1.0000000
N2   N   0.381134173676575   0.618867228241425   0.119851018389552   1.0000000
N2   N   0.381038963276835   0.761788846820896   0.111320357435113   1.0000000
N2   N   0.523843532811151   0.904942819611435   0.109989668449329   1.0000000
N2   N   0.523699633620916   0.047636701804842   0.112260808017051   1.0000000
N2   N   0.523576421754335   0.190289899757860   0.116141200211776   1.0000000
N2   N   0.523059068518482   0.332429854370655   0.103518902693042   1.0000000
N2   N   0.526471649845864   0.622488162875352   0.129513828210227   1.0000000
N2   N   0.524063435529650   0.762348963076609   0.111327616330662   1.0000000
N2   N   0.666814704986216   0.905214316586887   0.110572850212158   1.0000000
N2   N   0.666574439748533   0.047908661798938   0.110542755129723   1.0000000
N2   N   0.666455690374373   0.190729592360377   0.113826675951943   1.0000000
N2   N   0.666267450837805   0.333733951079193   0.114448865195605   1.0000000
N2   N   0.667571547546343   0.476942333398514   0.103518902693042   1.0000000
N2   N   0.667959206450968   0.620336765524125   0.105775575262499   1.0000000
N2   N   0.667490128582857   0.762956847450868   0.111079288716992   1.0000000
N2   N   0.809824828440778   0.905324474584139   0.110580351412496   1.0000000
N2   N   0.809439210502107   0.047924871359368   0.109527215662986   1.0000000
N2   N   0.809288285597632   0.190713116320365   0.110640763817819   1.0000000
N2   N   0.809271809557621   0.333545711542625   0.113826675951943   1.0000000
N2   N   0.809711502160137   0.476424980162662   0.116141200211776   1.0000000
N2   N   0.810118077162108   0.619529305416077   0.113317840438613   1.0000000
N2   N   0.810148525222741   0.762633176876072   0.114211862255114   1.0000000
P2   P   0.476833641448713   0.523168379748286   0.182544252485032   1.0000000
P2   P   0.526719839417883   0.473281562499114   0.002143681068131   1.0000000


