data_1
_audit_creation_method   'vasp2cif'
_cell_length_a    14.93631414619966
_cell_length_b    14.936314146199727
_cell_length_c    13.341276283792837
_cell_angle_alpha    90.0
_cell_angle_beta    90.0
_cell_angle_gamma    119.99999999999984

_symmetry_space_group_name_H-M    'P 1'
loop_
_atom_site_label
_atom_site_type_symbol
_atom_site_fract_x
_atom_site_fract_y
_atom_site_fract_z
_atom_site_occupancy
Ga2   Ga   0.444444444444443   0.388888888888886   0.375000000000000   1.0000000
N2   N   0.111094139509631   0.055540667548034   0.124884002187876   1.0000000
N2   N   0.611131265861822   0.555579929190658   0.124912289233095   1.0000000
N2   N   0.444446528038404   0.055540667548034   0.124884002187876   1.0000000
N2   N   0.944448877455105   0.555555363666892   0.124994259140170   1.0000000
N2   N   0.777777777777779   0.055555555555557   0.124959132616738   1.0000000
N2   N   0.111111111111114   0.722222222222221   0.625010227639336   1.0000000
N2   N   0.444446528038404   0.722239193823705   0.625115997812124   1.0000000
N2   N   0.277753404142679   0.222202067471514   0.625087710766904   1.0000000
N2   N   0.777792665785303   0.722239193823705   0.625115997812124   1.0000000
N2   N   0.611118155603254   0.222215177730081   0.625143153388718   1.0000000
N2   N   0.944437853808050   0.222219672828976   0.625042011029474   1.0000000
N2   N   0.277777969666443   0.722226847121548   0.124994259140170   1.0000000
N2   N   0.111097022126832   0.222215177730081   0.124856846611281   1.0000000
N2   N   0.444448663328835   0.222202067471514   0.124912289233095   1.0000000
N2   N   0.611118155603254   0.722236311206504   0.124856846611281   1.0000000
N2   N   0.944448877455105   0.722226847121548   0.124994259140170   1.0000000
N2   N   0.777781819020927   0.222219672828976   0.124957988970526   1.0000000
N2   N   0.111106486211787   0.888884455878224   0.625005740859831   1.0000000
N2   N   0.444447927737498   0.888890630535412   0.625020256651855   1.0000000
N2   N   0.277753404142679   0.388884670004494   0.625087710766904   1.0000000
N2   N   0.611131265861822   0.388884670004494   0.625087710766904   1.0000000
N2   N   0.777781819020927   0.888895479525278   0.625042011029474   1.0000000
N2   N   0.944442702797916   0.388885405595831   0.625020256651855   1.0000000
N2   N   0.111094139509631   0.388886805294925   0.124884002187876   1.0000000
N2   N   0.277777969666443   0.888884455878224   0.124994259140170   1.0000000
N2   N   0.611113660504360   0.888895479525278   0.124957988970526   1.0000000
N2   N   0.444444444444443   0.388888888888886   0.128224295774775   1.0000000
N2   N   0.944442702797916   0.888890630535412   0.124979743348145   1.0000000
N2   N   0.777792665785303   0.388886805294925   0.124884002187876   1.0000000
N2   N   0.277771806935485   0.555561526397851   0.625073330374956   1.0000000
N2   N   0.111094139509631   0.055540667548034   0.625115997812124   1.0000000
N2   N   0.611131265861822   0.555579929190658   0.625087710766904   1.0000000
N2   N   0.444446528038404   0.055540667548034   0.625115997812124   1.0000000
N2   N   0.944448877455105   0.555555363666892   0.625005740859831   1.0000000
N2   N   0.111106486211787   0.555555363666892   0.124994259140170   1.0000000
N2   N   0.777777777777779   0.055555555555557   0.625040867383263   1.0000000
N2   N   0.277771806935485   0.055543613870971   0.124926669625045   1.0000000
N2   N   0.444448663328835   0.555579929190658   0.124912289233095   1.0000000
N2   N   0.777789719462366   0.555561526397851   0.124926669625045   1.0000000
N2   N   0.611113660504360   0.055551514312409   0.124957988970526   1.0000000
N2   N   0.444448663328835   0.555579929190658   0.625087710766904   1.0000000
N2   N   0.944437853808050   0.055551514312409   0.124957988970526   1.0000000
N2   N   0.277777969666443   0.722226847121548   0.625005740859831   1.0000000
N2   N   0.111097022126832   0.222215177730081   0.625143153388718   1.0000000
N2   N   0.444448663328835   0.222202067471514   0.625087710766904   1.0000000
N2   N   0.611118155603254   0.722236311206504   0.625143153388718   1.0000000
N2   N   0.944448877455105   0.722226847121548   0.625005740859831   1.0000000
N2   N   0.777781819020927   0.222219672828976   0.625042011029474   1.0000000
N2   N   0.111111111111114   0.722222222222221   0.124989772360663   1.0000000
N2   N   0.444446528038404   0.722239193823705   0.124884002187876   1.0000000
N2   N   0.277753404142679   0.222202067471514   0.124912289233095   1.0000000
N2   N   0.777792665785303   0.722239193823705   0.124884002187876   1.0000000
N2   N   0.611118155603254   0.222215177730081   0.124856846611281   1.0000000
N2   N   0.944437853808050   0.222219672828976   0.124957988970526   1.0000000
N2   N   0.111094139509631   0.388886805294925   0.625115997812124   1.0000000
N2   N   0.277777969666443   0.888884455878224   0.625005740859831   1.0000000
N2   N   0.611113660504360   0.888895479525278   0.625042011029474   1.0000000
N2   N   0.444444444444443   0.388888888888886   0.621775704225224   1.0000000
N2   N   0.944442702797916   0.888890630535412   0.625020256651855   1.0000000
N2   N   0.111106486211787   0.888884455878224   0.124994259140170   1.0000000
N2   N   0.777792665785303   0.388886805294925   0.625115997812124   1.0000000
N2   N   0.444447927737498   0.888890630535412   0.124979743348145   1.0000000
N2   N   0.277753404142679   0.388884670004494   0.124912289233095   1.0000000
N2   N   0.277771806935485   0.555561526397851   0.124926669625045   1.0000000
N2   N   0.611131265861822   0.388884670004494   0.124912289233095   1.0000000
N2   N   0.777781819020927   0.888895479525278   0.124957988970526   1.0000000
N2   N   0.944442702797916   0.388885405595831   0.124979743348145   1.0000000
N2   N   0.111106486211787   0.555555363666892   0.625005740859831   1.0000000
N2   N   0.277771806935485   0.055543613870971   0.625073330374956   1.0000000
N2   N   0.777789719462366   0.555561526397851   0.625073330374956   1.0000000
N2   N   0.611113660504360   0.055551514312409   0.625042011029474   1.0000000
N2   N   0.944437853808050   0.055551514312409   0.625042011029474   1.0000000
N2   N   0.054446457296170   0.110368067574508   0.375000000000000   1.0000000
N2   N   0.556117657829817   0.612235315659634   0.375000000000000   1.0000000
N2   N   0.387717601811430   0.104629569063696   0.375000000000000   1.0000000
N2   N   0.891133932974729   0.612233633154035   0.375000000000000   1.0000000
N2   N   0.722419076999180   0.110914256334155   0.375000000000000   1.0000000
N2   N   0.055554497804519   0.777778835528817   0.875000000000000   1.0000000
N2   N   0.388891256655693   0.777779058868213   0.875000000000000   1.0000000
N2   N   0.222224174948736   0.277778754141036   0.875000000000000   1.0000000
N2   N   0.722222464677431   0.777778613264498   0.875000000000000   1.0000000
N2   N   0.555554579192300   0.277778754141036   0.875000000000000   1.0000000
N2   N   0.888889124447606   0.277778248895220   0.875000000000000   1.0000000
N2   N   0.221791781281946   0.777562557307641   0.375000000000000   1.0000000
N2   N   0.054446457296170   0.277411723054999   0.375000000000000   1.0000000
N2   N   0.377859178094580   0.255718356189166   0.375000000000000   1.0000000
N2   N   0.555921610278337   0.778886876037166   0.375000000000000   1.0000000
N2   N   0.890705883918753   0.779243207763528   0.375000000000000   1.0000000
N2   N   0.722965265758828   0.277411723054999   0.375000000000000   1.0000000
N2   N   0.055554274465122   0.944445531120815   0.875000000000000   1.0000000
N2   N   0.388891256655693   0.944445531120815   0.875000000000000   1.0000000
N2   N   0.222224592185743   0.444440637265891   0.875000000000000   1.0000000
N2   N   0.555541246368834   0.444437289851081   0.875000000000000   1.0000000
N2   N   0.722222206552267   0.944444413104535   0.875000000000000   1.0000000
N2   N   0.888887802212514   0.444442076677636   0.875000000000000   1.0000000
N2   N   0.054090125569807   0.444796009488561   0.375000000000000   1.0000000
N2   N   0.221099700179300   0.942199400358600   0.375000000000000   1.0000000
N2   N   0.555852756059596   0.944593044696462   0.375000000000000   1.0000000
N2   N   0.377859178094580   0.455474155238749   0.375000000000000   1.0000000
N2   N   0.888740288636866   0.944593044696462   0.375000000000000   1.0000000
N2   N   0.728703764269640   0.445615731521899   0.375000000000000   1.0000000
N2   N   0.222224144696996   0.611109188636339   0.875000000000000   1.0000000
N2   N   0.055554720068838   0.111110868655904   0.875000000000000   1.0000000
N2   N   0.555554579192300   0.611109158384599   0.875000000000000   1.0000000
N2   N   0.388892696067437   0.111117288253186   0.875000000000000   1.0000000
N2   N   0.888885043939335   0.611109188636339   0.875000000000000   1.0000000
N2   N   0.055770776025695   0.611541552051388   0.375000000000000   1.0000000
N2   N   0.722222206552267   0.111111126781068   0.875000000000000   1.0000000
N2   N   0.216911967252259   0.104629569063696   0.375000000000000   1.0000000
N2   N   0.387717601811430   0.616421366081076   0.375000000000000   1.0000000
N2   N   0.728703764269640   0.616421366081076   0.375000000000000   1.0000000
N2   N   0.555921610278337   0.110368067574508   0.375000000000000   1.0000000
N2   N   0.388892696067437   0.611108741147593   0.875000000000000   1.0000000
N2   N   0.888495179334968   0.110914256334155   0.375000000000000   1.0000000
N2   N   0.222224337724298   0.777778835528817   0.875000000000000   1.0000000
N2   N   0.055554720068838   0.277777184746270   0.875000000000000   1.0000000
N2   N   0.388896043482247   0.277792086964501   0.875000000000000   1.0000000
N2   N   0.555556148587067   0.777778613264498   0.875000000000000   1.0000000
N2   N   0.888887802212514   0.777779058868213   0.875000000000000   1.0000000
N2   N   0.722222464677431   0.277777184746270   0.875000000000000   1.0000000
N2   N   0.055770776025695   0.777562557307641   0.375000000000000   1.0000000
N2   N   0.388537323844768   0.779243207763528   0.375000000000000   1.0000000
N2   N   0.221098017673701   0.277215675503518   0.375000000000000   1.0000000
N2   N   0.722965265758828   0.778886876037166   0.375000000000000   1.0000000
N2   N   0.556117657829817   0.277215675503518   0.375000000000000   1.0000000
N2   N   0.888740288636866   0.277480577273741   0.375000000000000   1.0000000
N2   N   0.055554274465122   0.444442076677636   0.875000000000000   1.0000000
N2   N   0.222224144696996   0.944448289393994   0.875000000000000   1.0000000
N2   N   0.555555084438118   0.944444208885723   0.875000000000000   1.0000000
N2   N   0.388896043482247   0.444437289851081   0.875000000000000   1.0000000
N2   N   0.888889124447606   0.944444208885723   0.875000000000000   1.0000000
N2   N   0.054090125569807   0.942627449414576   0.375000000000000   1.0000000
N2   N   0.722216045080149   0.444440637265891   0.875000000000000   1.0000000
N2   N   0.388537323844768   0.942627449414576   0.375000000000000   1.0000000
N2   N   0.216911967252259   0.445615731521899   0.375000000000000   1.0000000
N2   N   0.221099700179300   0.612233633154035   0.375000000000000   1.0000000
N2   N   0.577614977144169   0.455474155238749   0.375000000000000   1.0000000
N2   N   0.722419076999180   0.944838153998361   0.375000000000000   1.0000000
N2   N   0.890705883918753   0.444796009488561   0.375000000000000   1.0000000
N2   N   0.055554497804519   0.611108995609037   0.875000000000000   1.0000000
N2   N   0.222224592185743   0.111117288253186   0.875000000000000   1.0000000
N2   N   0.722216045080149   0.611108741147593   0.875000000000000   1.0000000
N2   N   0.555556148587067   0.111110868655904   0.875000000000000   1.0000000
N2   N   0.888888920228793   0.111111126781068   0.875000000000000   1.0000000
B2   B   0.107666661707449   0.052373695720128   0.375000000000000   1.0000000
B2   B   0.619255901437792   0.562406362997120   0.375000000000000   1.0000000
B2   B   0.444707034012679   0.052373695720128   0.375000000000000   1.0000000
B2   B   0.945424348566866   0.555844737008228   0.375000000000000   1.0000000
B2   B   0.777777777777779   0.055555555555557   0.375000000000000   1.0000000
B2   B   0.111111111111114   0.722222222222221   0.875000000000000   1.0000000
B2   B   0.444450650050402   0.722235442184059   0.875000000000000   1.0000000
B2   B   0.277755178716629   0.222208034705622   0.875000000000000   1.0000000
B2   B   0.777784792133659   0.722235442184059   0.875000000000000   1.0000000
B2   B   0.611122273562449   0.222211059770887   0.875000000000000   1.0000000
B2   B   0.944436200037465   0.222217052299707   0.875000000000000   1.0000000
B2   B   0.277488596325107   0.722912944891974   0.375000000000000   1.0000000
B2   B   0.110042794337492   0.221688063835410   0.375000000000000   1.0000000
B2   B   0.443150461559327   0.214077431895543   0.375000000000000   1.0000000
B2   B   0.611645269497926   0.723290538995844   0.375000000000000   1.0000000
B2   B   0.945424348566866   0.722912944891974   0.375000000000000   1.0000000
B2   B   0.777920198961147   0.221745345295539   0.375000000000000   1.0000000
B2   B   0.111108068388821   0.888888293360300   0.875000000000000   1.0000000
B2   B   0.444449673547955   0.888891503440642   0.875000000000000   1.0000000
B2   B   0.277755178716629   0.388880477344336   0.875000000000000   1.0000000
B2   B   0.611125298627714   0.388880477344336   0.875000000000000   1.0000000
B2   B   0.777780852262242   0.888897133295863   0.875000000000000   1.0000000
B2   B   0.944441829892686   0.388883659785374   0.875000000000000   1.0000000
B2   B   0.107666661707449   0.388626299320649   0.375000000000000   1.0000000
B2   B   0.277488596325107   0.887908984766462   0.375000000000000   1.0000000
B2   B   0.611587988037797   0.889508186998936   0.375000000000000   1.0000000
B2   B   0.944257126335508   0.889076206997821   0.375000000000000   1.0000000
B2   B   0.780959637613208   0.388626299320649   0.375000000000000   1.0000000
B2   B   0.277774161913295   0.555559171420042   0.875000000000000   1.0000000
B2   B   0.111097891149275   0.055548541199677   0.875000000000000   1.0000000
B2   B   0.611125298627714   0.555578154616707   0.875000000000000   1.0000000
B2   B   0.444450650050402   0.055548541199677   0.875000000000000   1.0000000
B2   B   0.944445039973028   0.555553108361848   0.875000000000000   1.0000000
B2   B   0.110420388441361   0.555844737008228   0.375000000000000   1.0000000
B2   B   0.777777777777779   0.055555555555557   0.875000000000000   1.0000000
B2   B   0.276120944012143   0.052241888024286   0.375000000000000   1.0000000
B2   B   0.443150461559327   0.562406362997120   0.375000000000000   1.0000000
B2   B   0.781091445309050   0.557212389321194   0.375000000000000   1.0000000
B2   B   0.611587988037797   0.055413134372189   0.375000000000000   1.0000000
B2   B   0.444452855988993   0.555578154616707   0.875000000000000   1.0000000
B2   B   0.943825146334392   0.055413134372189   0.375000000000000   1.0000000
B2   B   0.277780224971487   0.722225264944515   0.875000000000000   1.0000000
B2   B   0.111088786208446   0.222211059770887   0.875000000000000   1.0000000
B2   B   0.444452855988993   0.222208034705622   0.875000000000000   1.0000000
B2   B   0.611122273562449   0.722244547124891   0.875000000000000   1.0000000
B2   B   0.944445039973028   0.722225264944515   0.875000000000000   1.0000000
B2   B   0.777780852262242   0.222217052299707   0.875000000000000   1.0000000
B2   B   0.111111111111114   0.722222222222221   0.375000000000000   1.0000000
B2   B   0.444707034012679   0.725666671625886   0.375000000000000   1.0000000
B2   B   0.270926970336216   0.214077431895543   0.375000000000000   1.0000000
B2   B   0.780959637613208   0.725666671625886   0.375000000000000   1.0000000
B2   B   0.611645269497926   0.221688063835410   0.375000000000000   1.0000000
B2   B   0.943825146334392   0.221745345295539   0.375000000000000   1.0000000
B2   B   0.111097891149275   0.388882683282927   0.875000000000000   1.0000000
B2   B   0.277780224971487   0.888888293360300   0.875000000000000   1.0000000
B2   B   0.611116281033629   0.888897133295863   0.875000000000000   1.0000000
B2   B   0.444444444444443   0.388888888888886   0.875000000000000   1.0000000
B2   B   0.944441829892686   0.888891503440642   0.875000000000000   1.0000000
B2   B   0.110420388441361   0.887908984766462   0.375000000000000   1.0000000
B2   B   0.777784792133659   0.388882683282927   0.875000000000000   1.0000000
B2   B   0.444819080662314   0.889076206997821   0.375000000000000   1.0000000
B2   B   0.270926970336216   0.390182871774002   0.375000000000000   1.0000000
B2   B   0.276120944012143   0.557212389321194   0.375000000000000   1.0000000
B2   B   0.619255901437792   0.390182871774002   0.375000000000000   1.0000000
B2   B   0.777920198961147   0.889508186998936   0.375000000000000   1.0000000
B2   B   0.944257126335508   0.388514252671015   0.375000000000000   1.0000000
B2   B   0.111108068388821   0.555553108361848   0.875000000000000   1.0000000
B2   B   0.277774161913295   0.055548323826590   0.875000000000000   1.0000000
B2   B   0.777785009506746   0.555559171420042   0.875000000000000   1.0000000
B2   B   0.611116281033629   0.055552481071094   0.875000000000000   1.0000000
B2   B   0.944436200037465   0.055552481071094   0.875000000000000   1.0000000
B2   B   0.055527306582536   0.111090476162565   0.124953069601640   1.0000000
B2   B   0.555593131020548   0.611186262041097   0.124928039181072   1.0000000
B2   B   0.388862327233313   0.111029532608828   0.124899951005083   1.0000000
B2   B   0.888915187174699   0.611124260254022   0.124997123451848   1.0000000
B2   B   0.722225220205665   0.111108113127671   0.124996942891587   1.0000000
B2   B   0.055556835021306   0.777776498312029   0.624997666433743   1.0000000
B2   B   0.388888736201145   0.777793127971975   0.625014890418098   1.0000000
B2   B   0.222147071292237   0.277740202312787   0.625071960818928   1.0000000
B2   B   0.722242857170770   0.777806026750800   0.625046930398360   1.0000000
B2   B   0.555593131020548   0.277740202312787   0.625071960818928   1.0000000
B2   B   0.888885031777559   0.277770063555126   0.625003665309382   1.0000000
B2   B   0.222219663290723   0.777776498312029   0.125002333566257   1.0000000
B2   B   0.055527306582536   0.277770163753307   0.124953069601640   1.0000000
B2   B   0.388759616553907   0.277519233107822   0.125817240653347   1.0000000
B2   B   0.555563169580028   0.777806026750800   0.124953069601640   1.0000000
B2   B   0.888904391770824   0.777793127971975   0.124985109581902   1.0000000
B2   B   0.722242857170770   0.277770163753307   0.124953069601640   1.0000000
B2   B   0.055540205361360   0.944428941562505   0.625014890418098   1.0000000
B2   B   0.388888736201145   0.944428941562505   0.625014890418098   1.0000000
B2   B   0.222167205375508   0.444471006100016   0.625100048994917   1.0000000
B2   B   0.555814100225514   0.444573716779421   0.624182759346653   1.0000000
B2   B   0.722225220205665   0.944450440411330   0.625003057108414   1.0000000
B2   B   0.888904391770824   0.444444597132184   0.625014890418098   1.0000000
B2   B   0.055540205361360   0.444444597132184   0.124985109581902   1.0000000
B2   B   0.222209073079314   0.944418146158630   0.124997123451848   1.0000000
B2   B   0.555563269778210   0.944448301555769   0.124996334690618   1.0000000
B2   B   0.388759616553907   0.444573716779421   0.125817240653347   1.0000000
B2   B   0.888885031777559   0.944448301555769   0.124996334690618   1.0000000
B2   B   0.722303800724508   0.444471006100016   0.124899951005083   1.0000000
B2   B   0.222209073079314   0.611124260254022   0.625002876548151   1.0000000
B2   B   0.055527306582536   0.111090476162565   0.625046930398360   1.0000000
B2   B   0.555593131020548   0.611186262041097   0.625071960818928   1.0000000
B2   B   0.388862327233313   0.111029532608828   0.625100048994917   1.0000000
B2   B   0.888915187174699   0.611124260254022   0.625002876548151   1.0000000
B2   B   0.055556835021306   0.611113670042614   0.125002333566257   1.0000000
B2   B   0.722225220205665   0.111108113127671   0.625003057108414   1.0000000
B2   B   0.222167205375508   0.111029532608828   0.124899951005083   1.0000000
B2   B   0.388862327233313   0.611166127957827   0.124899951005083   1.0000000
B2   B   0.722303800724508   0.611166127957827   0.124899951005083   1.0000000
B2   B   0.555563169580028   0.111090476162565   0.124953069601640   1.0000000
B2   B   0.388862327233313   0.611166127957827   0.625100048994917   1.0000000
B2   B   0.888882892921998   0.111108113127671   0.124996942891587   1.0000000
B2   B   0.222219663290723   0.777776498312029   0.624997666433743   1.0000000
B2   B   0.055527306582536   0.277770163753307   0.625046930398360   1.0000000
B2   B   0.388759616553907   0.277519233107822   0.624182759346653   1.0000000
B2   B   0.555563169580028   0.777806026750800   0.625046930398360   1.0000000
B2   B   0.888904391770824   0.777793127971975   0.625014890418098   1.0000000
B2   B   0.722242857170770   0.277770163753307   0.625046930398360   1.0000000
B2   B   0.055556835021306   0.777776498312029   0.125002333566257   1.0000000
B2   B   0.388888736201145   0.777793127971975   0.124985109581902   1.0000000
B2   B   0.222147071292237   0.277740202312787   0.124928039181072   1.0000000
B2   B   0.722242857170770   0.777806026750800   0.124953069601640   1.0000000
B2   B   0.555593131020548   0.277740202312787   0.124928039181072   1.0000000
B2   B   0.888885031777559   0.277770063555126   0.124996334690618   1.0000000
B2   B   0.055540205361360   0.444444597132184   0.625014890418098   1.0000000
B2   B   0.222209073079314   0.944418146158630   0.625002876548151   1.0000000
B2   B   0.555563269778210   0.944448301555769   0.625003665309382   1.0000000
B2   B   0.388759616553907   0.444573716779421   0.624182759346653   1.0000000
B2   B   0.888885031777559   0.944448301555769   0.625003665309382   1.0000000
B2   B   0.055540205361360   0.944428941562505   0.124985109581902   1.0000000
B2   B   0.722303800724508   0.444471006100016   0.625100048994917   1.0000000
B2   B   0.388888736201145   0.944428941562505   0.124985109581902   1.0000000
B2   B   0.222167205375508   0.444471006100016   0.124899951005083   1.0000000
B2   B   0.222209073079314   0.611124260254022   0.124997123451848   1.0000000
B2   B   0.555814100225514   0.444573716779421   0.125817240653347   1.0000000
B2   B   0.722225220205665   0.944450440411330   0.124996942891587   1.0000000
B2   B   0.888904391770824   0.444444597132184   0.124985109581902   1.0000000
B2   B   0.055556835021306   0.611113670042614   0.624997666433743   1.0000000
B2   B   0.222167205375508   0.111029532608828   0.625100048994917   1.0000000
B2   B   0.722303800724508   0.611166127957827   0.625100048994917   1.0000000
B2   B   0.555563169580028   0.111090476162565   0.625046930398360   1.0000000
B2   B   0.888882892921998   0.111108113127671   0.625003057108414   1.0000000


