data_1
_audit_creation_method   'vasp2cif'
_cell_length_a    17.52789999999977
_cell_length_b    17.52789999999977
_cell_length_c    15.0
_cell_angle_alpha    90.0
_cell_angle_beta    90.0
_cell_angle_gamma    119.99999999999916

_symmetry_space_group_name_H-M    'P 1'
loop_
_atom_site_label
_atom_site_type_symbol
_atom_site_fract_x
_atom_site_fract_y
_atom_site_fract_z
_atom_site_occupancy
B2   B   0.905520040005097   0.953264110470659   0.118414535040517   1.0000000
B2   B   0.904405720411400   0.095740365784480   0.118632060311141   1.0000000
B2   B   0.904085310345253   0.238643968484607   0.117337694250379   1.0000000
B2   B   0.904194356377370   0.381506939913309   0.115603540028621   1.0000000
B2   B   0.905022394532522   0.524387731029065   0.114193996690355   1.0000000
B2   B   0.906750611696113   0.667642538322751   0.114570523068361   1.0000000
B2   B   0.907197527334605   0.811212793669484   0.116501914954079   1.0000000
B2   B   0.048059899885607   0.952089439759700   0.119293768327299   1.0000000
B2   B   0.046886792404109   0.094627521408355   0.118398258013575   1.0000000
B2   B   0.046663896083404   0.237853212028229   0.115264811016266   1.0000000
B2   B   0.047150374855138   0.380972347739650   0.113096457815108   1.0000000
B2   B   0.048194419815755   0.523733858950554   0.113614980540999   1.0000000
B2   B   0.048845817588528   0.666561236685747   0.115749135442978   1.0000000
B2   B   0.048869782969922   0.809468798429768   0.117906343986131   1.0000000
B2   B   0.190681660349256   0.951279933561026   0.117906128245115   1.0000000
B2   B   0.188945951600268   0.092953832845867   0.116489611835095   1.0000000
B2   B   0.188103385256273   0.235755698752337   0.111435640532349   1.0000000
B2   B   0.189259158761326   0.379935740622216   0.106490050758666   1.0000000
B2   B   0.191520216476764   0.523124504166880   0.106510019273332   1.0000000
B2   B   0.191594333846576   0.665980599869826   0.110857000060951   1.0000000
B2   B   0.191389906082931   0.808765966450369   0.115652996523550   1.0000000
B2   B   0.333592979421061   0.951312303137741   0.115723331377255   1.0000000
B2   B   0.332522637156741   0.093410468068126   0.114557384410365   1.0000000
B2   B   0.329101609361892   0.232868486755635   0.108540551945202   1.0000000
B2   B   0.328700722382844   0.376258648018030   0.100727896601002   1.0000000
B2   B   0.335225958196534   0.522375158926362   0.097866303860201   1.0000000
B2   B   0.334597472099028   0.665540640592675   0.102830813765627   1.0000000
B2   B   0.334171349590524   0.808560612188208   0.110844211687855   1.0000000
B2   B   0.476415416225769   0.951956527630561   0.113611478338611   1.0000000
B2   B   0.475766714140769   0.095128765082982   0.114175573063796   1.0000000
B2   B   0.474402291656051   0.237682114173848   0.107714271214458   1.0000000
B2   B   0.466647119024895   0.373681060365770   0.099715927050140   1.0000000
B2   B   0.477770681216149   0.664930691802302   0.097868755432640   1.0000000
B2   B   0.477017791021186   0.808627289900354   0.106506849336994   1.0000000
B2   B   0.619177517265541   0.953001407401960   0.113099036034340   1.0000000
B2   B   0.618646293397201   0.095958934761495   0.115593465709549   1.0000000
B2   B   0.618075681121736   0.239173909237639   0.111439451305982   1.0000000
B2   B   0.617447709203588   0.382710121079151   0.103956946788870   1.0000000
B2   B   0.626470298777140   0.533498513862259   0.099696183438700   1.0000000
B2   B   0.623881636584946   0.671438446603120   0.100754109473451   1.0000000
B2   B   0.620218080941656   0.810893454518171   0.106511193193855   1.0000000
B2   B   0.762293427194788   0.953483001643574   0.115284235352387   1.0000000
B2   B   0.761511607924659   0.096070237811357   0.117338175274133   1.0000000
B2   B   0.761120846114316   0.239022038944012   0.115869959702375   1.0000000
B2   B   0.760968779148578   0.382065317741681   0.111444806210739   1.0000000
B2   B   0.762469485423973   0.525749902392536   0.107725112506918   1.0000000
B2   B   0.767285224816888   0.671048743176380   0.108560754594654   1.0000000
B2   B   0.764384599627072   0.812034346871926   0.111465928294537   1.0000000
N2   N   0.953291799960323   0.905612634219897   0.118945029803094   1.0000000
N2   N   0.952128002066228   0.048022512884762   0.119397008017475   1.0000000
N2   N   0.951740657420511   0.190898234806865   0.117856158434858   1.0000000
N2   N   0.951883036254407   0.333883425885231   0.116143228001186   1.0000000
N2   N   0.952466331666626   0.476636366758497   0.115237831768499   1.0000000
N2   N   0.953327177024038   0.619370231220241   0.115527018820795   1.0000000
N2   N   0.953683823903068   0.762474661579885   0.117066743372434   1.0000000
N2   N   0.095737812702292   0.904411925809174   0.118794713124788   1.0000000
N2   N   0.094542306829088   0.046861158920882   0.118942401196609   1.0000000
N2   N   0.093932861331689   0.189695936326515   0.115732250872977   1.0000000
N2   N   0.094674347805359   0.333155031948714   0.111696300968980   1.0000000
N2   N   0.096114329469631   0.476099394765588   0.111126575889523   1.0000000
N2   N   0.096322290409672   0.618764758645892   0.113816259386324   1.0000000
N2   N   0.096234801155813   0.761565765177936   0.116829572572571   1.0000000
N2   N   0.238587314456193   0.903918519991789   0.116821359569489   1.0000000
N2   N   0.237678654727048   0.046470784355342   0.117061231460224   1.0000000
N2   N   0.235463284449694   0.187818285169681   0.112440469813801   1.0000000
N2   N   0.235593676865496   0.331057328634602   0.105666647851653   1.0000000
N2   N   0.239856723886014   0.475223427538263   0.102800158116873   1.0000000
N2   N   0.239543459707334   0.618178563191415   0.106071482312570   1.0000000
N2   N   0.239101247066947   0.761051354490620   0.112445115273952   1.0000000
N2   N   0.381387619090732   0.903830430405630   0.113796830473647   1.0000000
N2   N   0.380781097677366   0.046827351764176   0.115502847152902   1.0000000
N2   N   0.379591103123626   0.189008562319532   0.110175717668779   1.0000000
N2   N   0.375120134746518   0.327953914274664   0.102793554933880   1.0000000
N2   N   0.382089097229214   0.471416778896157   0.094830261729830   1.0000000
N2   N   0.382947396140033   0.617199028690432   0.097403925128253   1.0000000
N2   N   0.381965903830788   0.760601878443593   0.106059771700792   1.0000000
N2   N   0.524049995046806   0.904033018401672   0.111122947103507   1.0000000
N2   N   0.523517582205692   0.047687281304209   0.115223497150259   1.0000000
N2   N   0.522806297578474   0.191326765579331   0.111064965822674   1.0000000
N2   N   0.521404639902575   0.335467062049415   0.102331170793096   1.0000000
N2   N   0.528728711997784   0.618053910673367   0.094840683905682   1.0000000
N2   N   0.524925217984213   0.760292528144660   0.102804498715186   1.0000000
N2   N   0.666990649407383   0.905472700946150   0.111709912526968   1.0000000
N2   N   0.666273231707548   0.048272809081043   0.116145493176471   1.0000000
N2   N   0.665713331176791   0.191664341942377   0.114868554422424   1.0000000
N2   N   0.664887040715647   0.335260512282381   0.108547494216089   1.0000000
N2   N   0.664683197904981   0.478745399592009   0.102319917718507   1.0000000
N2   N   0.672197142376253   0.625030857455888   0.102802978952328   1.0000000
N2   N   0.669086764566545   0.764550742615530   0.105695967478247   1.0000000
N2   N   0.810445814601970   0.906213255677003   0.115760964513332   1.0000000
N2   N   0.809252824554532   0.048410293075641   0.117867706768660   1.0000000
N2   N   0.808785925327733   0.191367917258986   0.117621314355909   1.0000000
N2   N   0.808485465859355   0.334433936513383   0.114872321849061   1.0000000
N2   N   0.808825672293476   0.477339979576365   0.111078486083654   1.0000000
N2   N   0.811144390208061   0.620559724171087   0.110191912673643   1.0000000
N2   N   0.812334574890643   0.764690667121379   0.112461447507955   1.0000000
P2   P   0.492301825414011   0.507837688482385   0.081590644564116   1.0000000


