data_1
_audit_creation_method   'vasp2cif'
_cell_length_a    14.93631414619966
_cell_length_b    14.936314146199727
_cell_length_c    13.341276283792837
_cell_angle_alpha    90.0
_cell_angle_beta    90.0
_cell_angle_gamma    119.99999999999984

_symmetry_space_group_name_H-M    'P 1'
loop_
_atom_site_label
_atom_site_type_symbol
_atom_site_fract_x
_atom_site_fract_y
_atom_site_fract_z
_atom_site_occupancy
C2   C   0.717177783493547   0.441540184134483   0.375000000000000   1.0000000
C2   C   0.608560886421294   0.387758050163267   0.375000000000000   1.0000000
C2   C   0.444049572320119   0.387656930268460   0.375000000000000   1.0000000
C2   C   0.551875030161946   0.439296090752263   0.375000000000000   1.0000000
N2   N   0.111162540960484   0.055709417102969   0.124948689438446   1.0000000
N2   N   0.611186946825882   0.555752475250126   0.124608289808427   1.0000000
N2   N   0.444531476047404   0.055750800436673   0.124954922725703   1.0000000
N2   N   0.944479954231792   0.555682507589248   0.124848111176867   1.0000000
N2   N   0.777876271749297   0.055724482328426   0.124914155456960   1.0000000
N2   N   0.111161318037157   0.722367673204285   0.625092522810742   1.0000000
N2   N   0.444525468959481   0.722382842125649   0.625059826847977   1.0000000
N2   N   0.277795566581618   0.222372033169361   0.625080215233286   1.0000000
N2   N   0.777858571467392   0.722409076000157   0.625131140175375   1.0000000
N2   N   0.611214283430129   0.222376575697610   0.625133625285692   1.0000000
N2   N   0.944531474805934   0.222370578197080   0.625085418394838   1.0000000
N2   N   0.277848402772137   0.722382678761630   0.124920947309418   1.0000000
N2   N   0.111145218388260   0.222351574734729   0.124892539436328   1.0000000
N2   N   0.444514071170535   0.222400452273282   0.124991299993340   1.0000000
N2   N   0.611208839939234   0.722418573904521   0.124867252773674   1.0000000
N2   N   0.944501696094811   0.722380648570546   0.124840852041708   1.0000000
N2   N   0.777897809514483   0.222354258193869   0.124830502547742   1.0000000
N2   N   0.111176985019799   0.889049194823803   0.625081870845557   1.0000000
N2   N   0.444525721103249   0.889066097244922   0.625064764064043   1.0000000
N2   N   0.277825949502926   0.389014693104539   0.625056596614015   1.0000000
N2   N   0.611151328027351   0.388985213995050   0.625659367999772   1.0000000
N2   N   0.777873238732805   0.889079326725180   0.625082126550929   1.0000000
N2   N   0.944529497100278   0.389023757978892   0.625131699278259   1.0000000
N2   N   0.111183524310692   0.389038312425824   0.124939657190764   1.0000000
N2   N   0.277849399432896   0.889065314658448   0.124945893708070   1.0000000
N2   N   0.611197385595487   0.889076702635363   0.124923925983086   1.0000000
N2   N   0.444454693452715   0.389001148251664   0.124559324785743   1.0000000
N2   N   0.944518411185045   0.889063341730530   0.124907481964896   1.0000000
N2   N   0.777877974216460   0.388963744334918   0.124361307271342   1.0000000
N2   N   0.277851562066967   0.555706508694416   0.625073420308183   1.0000000
N2   N   0.111162540960484   0.055709417102969   0.625051310561554   1.0000000
N2   N   0.611186946825882   0.555752475250126   0.625391710191573   1.0000000
N2   N   0.444531476047404   0.055750800436673   0.625045077274297   1.0000000
N2   N   0.944479954231792   0.555682507589248   0.625151888823133   1.0000000
N2   N   0.111171544797184   0.555702369819338   0.124905425729462   1.0000000
N2   N   0.777876271749297   0.055724482328426   0.625085844543040   1.0000000
N2   N   0.277846276272109   0.055734373409778   0.124944123464110   1.0000000
N2   N   0.444536156599912   0.555703912440971   0.124920423992146   1.0000000
N2   N   0.777849252019743   0.555754121511339   0.124324636113998   1.0000000
N2   N   0.611203425330933   0.055725788543257   0.124913244703154   1.0000000
N2   N   0.444536156599912   0.555703912440971   0.625079576007854   1.0000000
N2   N   0.944515389436866   0.055708783530648   0.124904967008557   1.0000000
N2   N   0.277848402772137   0.722382678761630   0.625079052690582   1.0000000
N2   N   0.111145218388260   0.222351574734729   0.625107460563672   1.0000000
N2   N   0.444514071170535   0.222400452273282   0.625008700006660   1.0000000
N2   N   0.611208839939234   0.722418573904521   0.625132747226326   1.0000000
N2   N   0.944501696094811   0.722380648570546   0.625159147958292   1.0000000
N2   N   0.777897809514483   0.222354258193869   0.625169497452258   1.0000000
N2   N   0.111161318037157   0.722367673204285   0.124907477189258   1.0000000
N2   N   0.444525468959481   0.722382842125649   0.124940173152022   1.0000000
N2   N   0.277795566581618   0.222372033169361   0.124919784766714   1.0000000
N2   N   0.777858571467392   0.722409076000157   0.124868859824625   1.0000000
N2   N   0.611214283430129   0.222376575697610   0.124866374714308   1.0000000
N2   N   0.944531474805934   0.222370578197080   0.124914581605162   1.0000000
N2   N   0.111183524310692   0.389038312425824   0.625060342809236   1.0000000
N2   N   0.277849399432896   0.889065314658448   0.625054106291930   1.0000000
N2   N   0.611197385595487   0.889076702635363   0.625076074016913   1.0000000
N2   N   0.444454693452715   0.389001148251664   0.625440675214257   1.0000000
N2   N   0.944518411185045   0.889063341730530   0.625092518035103   1.0000000
N2   N   0.111176985019799   0.889049194823803   0.124918129154444   1.0000000
N2   N   0.777877974216460   0.388963744334918   0.625638692728658   1.0000000
N2   N   0.444525721103249   0.889066097244922   0.124935235935957   1.0000000
N2   N   0.277825949502926   0.389014693104539   0.124943403385985   1.0000000
N2   N   0.277851562066967   0.555706508694416   0.124926579691817   1.0000000
N2   N   0.611151328027351   0.388985213995050   0.124340632000228   1.0000000
N2   N   0.777873238732805   0.889079326725180   0.124917873449071   1.0000000
N2   N   0.944529497100278   0.389023757978892   0.124868300721741   1.0000000
N2   N   0.111171544797184   0.555702369819338   0.625094574270538   1.0000000
N2   N   0.277846276272109   0.055734373409778   0.625055876535891   1.0000000
N2   N   0.777849252019743   0.555754121511339   0.625675363886002   1.0000000
N2   N   0.611203425330933   0.055725788543257   0.625086755296846   1.0000000
N2   N   0.944515389436866   0.055708783530648   0.625095032991443   1.0000000
N2   N   0.055600361281482   0.111019867602917   0.375000000000000   1.0000000
N2   N   0.555552875576870   0.611859634320721   0.375000000000000   1.0000000
N2   N   0.389078616433168   0.112085075786812   0.375000000000000   1.0000000
N2   N   0.889521034109097   0.611901160259063   0.375000000000000   1.0000000
N2   N   0.722006757858733   0.110130218397421   0.375000000000000   1.0000000
N2   N   0.055484835297697   0.777591132294133   0.875000000000000   1.0000000
N2   N   0.388813766745374   0.777596133581099   0.875000000000000   1.0000000
N2   N   0.222136578932921   0.277581113071684   0.875000000000000   1.0000000
N2   N   0.722130120685892   0.777576245276936   0.875000000000000   1.0000000
N2   N   0.555475791071510   0.277595978573288   0.875000000000000   1.0000000
N2   N   0.888813833742205   0.277605183002779   0.875000000000000   1.0000000
N2   N   0.222472539654440   0.777818300167465   0.375000000000000   1.0000000
N2   N   0.055725730417445   0.277691626167864   0.375000000000000   1.0000000
N2   N   0.388023726876414   0.278907102491940   0.375000000000000   1.0000000
N2   N   0.555255137932923   0.777959802361499   0.375000000000000   1.0000000
N2   N   0.889502190817868   0.778573413011762   0.375000000000000   1.0000000
N2   N   0.722293486130042   0.275387566019371   0.375000000000000   1.0000000
N2   N   0.055468237597659   0.944251847004072   0.875000000000000   1.0000000
N2   N   0.388815140852796   0.944272313130208   0.875000000000000   1.0000000
N2   N   0.222136130394294   0.444262067449979   0.875000000000000   1.0000000
N2   N   0.555471582836952   0.444280759581817   0.875000000000000   1.0000000
N2   N   0.722132971891426   0.944257496957809   0.875000000000000   1.0000000
N2   N   0.888814110294951   0.444281416796282   0.875000000000000   1.0000000
N2   N   0.056295248716433   0.444400024181472   0.375000000000000   1.0000000
N2   N   0.222614684993275   0.944738765409025   0.375000000000000   1.0000000
N2   N   0.555269496423089   0.944452892852808   0.375000000000000   1.0000000
N2   N   0.389527371399611   0.442103784876630   0.375000000000000   1.0000000
N2   N   0.889022311075618   0.944605229217497   0.375000000000000   1.0000000
N2   N   0.222140474731384   0.610922984039581   0.875000000000000   1.0000000
N2   N   0.055471493595741   0.110909949732080   0.875000000000000   1.0000000
N2   N   0.555457127058519   0.610912547914822   0.875000000000000   1.0000000
N2   N   0.388820800408859   0.110933454575081   0.875000000000000   1.0000000
N2   N   0.888816302953707   0.610924596437036   0.875000000000000   1.0000000
N2   N   0.055837823391374   0.611130102470508   0.375000000000000   1.0000000
N2   N   0.722143657518363   0.110927486390226   0.875000000000000   1.0000000
N2   N   0.222522238779272   0.111280832713839   0.375000000000000   1.0000000
N2   N   0.388866658091681   0.610034369125261   0.375000000000000   1.0000000
N2   N   0.722705703390703   0.613762542678573   0.375000000000000   1.0000000
N2   N   0.555243226744716   0.111225436778908   0.375000000000000   1.0000000
N2   N   0.388800213581248   0.610927729634478   0.875000000000000   1.0000000
N2   N   0.888944143517471   0.110912066100571   0.375000000000000   1.0000000
N2   N   0.222145220632942   0.777603960902941   0.875000000000000   1.0000000
N2   N   0.055474972309392   0.277598031753392   0.875000000000000   1.0000000
N2   N   0.388806210804194   0.277597153370199   0.875000000000000   1.0000000
N2   N   0.555457963435450   0.777589301440204   0.875000000000000   1.0000000
N2   N   0.888799382966186   0.777586903406279   0.875000000000000   1.0000000
N2   N   0.722140948796091   0.277601647656441   0.875000000000000   1.0000000
N2   N   0.056156354812341   0.778157321564310   0.375000000000000   1.0000000
N2   N   0.388857427491807   0.777467172979467   0.375000000000000   1.0000000
N2   N   0.221709123860995   0.277399719357180   0.375000000000000   1.0000000
N2   N   0.722173308288227   0.778681797413482   0.375000000000000   1.0000000
N2   N   0.555449368808890   0.278285776453556   0.375000000000000   1.0000000
N2   N   0.889213500687661   0.277393944672953   0.375000000000000   1.0000000
N2   N   0.055482968419957   0.444268146975684   0.875000000000000   1.0000000
N2   N   0.222146120969774   0.944256864108509   0.875000000000000   1.0000000
N2   N   0.555470476552818   0.944255629172470   0.875000000000000   1.0000000
N2   N   0.388811946526231   0.444262298082545   0.875000000000000   1.0000000
N2   N   0.888797712428168   0.944239981944005   0.875000000000000   1.0000000
N2   N   0.056022922280157   0.944780306656485   0.375000000000000   1.0000000
N2   N   0.722155128009045   0.444274153944175   0.875000000000000   1.0000000
N2   N   0.388909949719778   0.944653185836602   0.375000000000000   1.0000000
N2   N   0.223091387899595   0.444337398789097   0.375000000000000   1.0000000
N2   N   0.222503359544991   0.611038353944641   0.375000000000000   1.0000000
N2   N   0.722008636236215   0.944355582608794   0.375000000000000   1.0000000
N2   N   0.889589566245626   0.444053490116574   0.375000000000000   1.0000000
N2   N   0.055484188743765   0.610939135156569   0.875000000000000   1.0000000
N2   N   0.222131764715686   0.110920429310831   0.875000000000000   1.0000000
N2   N   0.722134043187774   0.610926918347444   0.875000000000000   1.0000000
N2   N   0.555469785039178   0.110933439996545   0.875000000000000   1.0000000
N2   N   0.888802518213448   0.110929659613922   0.875000000000000   1.0000000
B2   B   0.111460397310577   0.055751038856426   0.375000000000000   1.0000000
B2   B   0.611821307083680   0.556237624635809   0.375000000000000   1.0000000
B2   B   0.444501741470746   0.056105662040381   0.375000000000000   1.0000000
B2   B   0.943712405323869   0.555127821242773   0.375000000000000   1.0000000
B2   B   0.777680235988639   0.055199368227750   0.375000000000000   1.0000000
B2   B   0.110975349947322   0.721973259754707   0.875000000000000   1.0000000
B2   B   0.444320572897950   0.721956645838020   0.875000000000000   1.0000000
B2   B   0.277669633227734   0.221991774861366   0.875000000000000   1.0000000
B2   B   0.777630737061568   0.721925812476719   0.875000000000000   1.0000000
B2   B   0.610979059516972   0.222029025093823   0.875000000000000   1.0000000
B2   B   0.944288846746192   0.221995118136346   0.875000000000000   1.0000000
B2   B   0.277803456727120   0.722026798748643   0.375000000000000   1.0000000
B2   B   0.111116743414587   0.222118077402082   0.375000000000000   1.0000000
B2   B   0.444646932531107   0.223669397262521   0.375000000000000   1.0000000
B2   B   0.610855388056156   0.722269684357469   0.375000000000000   1.0000000
B2   B   0.944545975273593   0.721966350796807   0.375000000000000   1.0000000
B2   B   0.777694328742807   0.221243710823776   0.375000000000000   1.0000000
B2   B   0.111014107003405   0.888588386681285   0.875000000000000   1.0000000
B2   B   0.444363679339471   0.888614240405467   0.875000000000000   1.0000000
B2   B   0.277703243756687   0.388611456729207   0.875000000000000   1.0000000
B2   B   0.611037624423076   0.388667849409944   0.875000000000000   1.0000000
B2   B   0.777668812563306   0.888575330367925   0.875000000000000   1.0000000
B2   B   0.944304427173868   0.388640650259980   0.875000000000000   1.0000000
B2   B   0.111756511438179   0.388902121901614   0.375000000000000   1.0000000
B2   B   0.277850600053454   0.888879647374235   0.375000000000000   1.0000000
B2   B   0.610814696683726   0.888845267167432   0.375000000000000   1.0000000
B2   B   0.944701170266106   0.889022639944021   0.375000000000000   1.0000000
B2   B   0.776838086853664   0.387377780628001   0.375000000000000   1.0000000
B2   B   0.277632961896738   0.555287266270308   0.875000000000000   1.0000000
B2   B   0.110996876823221   0.055308539681088   0.875000000000000   1.0000000
B2   B   0.610969329555582   0.555276118611958   0.875000000000000   1.0000000
B2   B   0.444359528553135   0.055368723851661   0.875000000000000   1.0000000
B2   B   0.944250361579575   0.555288205995996   0.875000000000000   1.0000000
B2   B   0.111190831730061   0.555492592523001   0.375000000000000   1.0000000
B2   B   0.777651037885351   0.055334297538669   0.875000000000000   1.0000000
B2   B   0.278100686334190   0.055887141791583   0.375000000000000   1.0000000
B2   B   0.444980415132147   0.554133455022459   0.375000000000000   1.0000000
B2   B   0.776538470374125   0.555940704229286   0.375000000000000   1.0000000
B2   B   0.610889062022628   0.055699207255655   0.375000000000000   1.0000000
B2   B   0.444376666375963   0.555255484304618   0.875000000000000   1.0000000
B2   B   0.944502859466537   0.055476666577697   0.375000000000000   1.0000000
B2   B   0.277663798673159   0.721933381134876   0.875000000000000   1.0000000
B2   B   0.111043715151230   0.221951533416380   0.875000000000000   1.0000000
B2   B   0.444412162923542   0.222015326592229   0.875000000000000   1.0000000
B2   B   0.610980247916501   0.721888754655145   0.875000000000000   1.0000000
B2   B   0.944292665131154   0.721885865254048   0.875000000000000   1.0000000
B2   B   0.777674952352345   0.221990847881462   0.875000000000000   1.0000000
B2   B   0.111121248786845   0.722025983635426   0.375000000000000   1.0000000
B2   B   0.444259070547175   0.721429694190279   0.375000000000000   1.0000000
B2   B   0.277748498853609   0.222470833825759   0.375000000000000   1.0000000
B2   B   0.777997162857762   0.723236114558727   0.375000000000000   1.0000000
B2   B   0.611679478987223   0.223045503579691   0.375000000000000   1.0000000
B2   B   0.944502029612447   0.222157135864309   0.375000000000000   1.0000000
B2   B   0.111000241139086   0.388671841080500   0.875000000000000   1.0000000
B2   B   0.277638357783328   0.888643783035193   0.875000000000000   1.0000000
B2   B   0.610942973908490   0.888610263253662   0.875000000000000   1.0000000
B2   B   0.444392530603661   0.388696237017245   0.875000000000000   1.0000000
B2   B   0.944265493999300   0.888582680904321   0.875000000000000   1.0000000
B2   B   0.111421441678335   0.888968953120853   0.375000000000000   1.0000000
B2   B   0.777634551046093   0.388696180214544   0.875000000000000   1.0000000
B2   B   0.444297270955237   0.888740196348091   0.375000000000000   1.0000000
B2   B   0.278622212115936   0.388459436415876   0.375000000000000   1.0000000
B2   B   0.278022966468852   0.555318454284321   0.375000000000000   1.0000000
B2   B   0.777725749741114   0.889035001706619   0.375000000000000   1.0000000
B2   B   0.944676906077686   0.389004925638407   0.375000000000000   1.0000000
B2   B   0.111008791004695   0.555285930919509   0.875000000000000   1.0000000
B2   B   0.277691237850884   0.055297593304950   0.875000000000000   1.0000000
B2   B   0.777660833532414   0.555247384695676   0.875000000000000   1.0000000
B2   B   0.610997453877665   0.055295531706811   0.875000000000000   1.0000000
B2   B   0.944323368891710   0.055261460011417   0.875000000000000   1.0000000
B2   B   0.055667702221998   0.111327231711520   0.125020684487070   1.0000000
B2   B   0.555759502950522   0.611175645149277   0.125114643992148   1.0000000
B2   B   0.389099181236708   0.111489421674364   0.125099481449323   1.0000000
B2   B   0.888702405405032   0.611106933155704   0.125168003672384   1.0000000
B2   B   0.722396800040014   0.111409376458340   0.125048460972589   1.0000000
B2   B   0.055536634571473   0.777890219704542   0.624946794227742   1.0000000
B2   B   0.389026417778471   0.777968853971038   0.624978783740658   1.0000000
B2   B   0.222344752437200   0.277981238173539   0.624957956946130   1.0000000
B2   B   0.722351984251627   0.777905801166365   0.624920223382301   1.0000000
B2   B   0.555820109610270   0.278228209148108   0.624815658438848   1.0000000
B2   B   0.888953266916718   0.277986965385774   0.624924683940676   1.0000000
B2   B   0.222229899626438   0.777961644687223   0.125033027938868   1.0000000
B2   B   0.055633283465154   0.277990737196248   0.125038693356931   1.0000000
B2   B   0.389100163030647   0.278160066875724   0.125137460968196   1.0000000
B2   B   0.555691954692188   0.777959355732259   0.125041442472635   1.0000000
B2   B   0.888870234417646   0.777882473986537   0.125088671325545   1.0000000
B2   B   0.722375587735177   0.278150651969214   0.125103876042554   1.0000000
B2   B   0.055607675835763   0.944646257729620   0.624969402766336   1.0000000
B2   B   0.389017452658775   0.944747257296417   0.624967520348217   1.0000000
B2   B   0.222319520752459   0.444621575993363   0.624935182745771   1.0000000
B2   B   0.555720205831063   0.444584627495579   0.624101952291848   1.0000000
B2   B   0.722350077040568   0.944680465849084   0.624968117611726   1.0000000
B2   B   0.888747299496904   0.444564625642143   0.624823276822281   1.0000000
B2   B   0.055584311102938   0.444603371501508   0.125068581387160   1.0000000
B2   B   0.222303741011248   0.944667510895138   0.125022970530600   1.0000000
B2   B   0.555703877857427   0.944695675243888   0.125015802630335   1.0000000
B2   B   0.389137820859146   0.444582214289805   0.125186460585486   1.0000000
B2   B   0.888969823127764   0.944606998603580   0.125030478789406   1.0000000
B2   B   0.722253421807513   0.444589224631752   0.126248906379273   1.0000000
B2   B   0.222271044938679   0.611242453177817   0.624975097100385   1.0000000
B2   B   0.055667702221998   0.111327231711520   0.624979315512930   1.0000000
B2   B   0.555759502950522   0.611175645149277   0.624885356007852   1.0000000
B2   B   0.389099181236708   0.111489421674364   0.624900518550677   1.0000000
B2   B   0.888702405405032   0.611106933155704   0.624831996327616   1.0000000
B2   B   0.055449544245096   0.611216204753246   0.125104092725199   1.0000000
B2   B   0.722396800040014   0.111409376458340   0.624951539027412   1.0000000
B2   B   0.222325012634484   0.111405895092284   0.125062577278147   1.0000000
B2   B   0.389051245406681   0.611255105052972   0.125079115862988   1.0000000
B2   B   0.722253504030071   0.611135753293217   0.125143368244566   1.0000000
B2   B   0.555734493647365   0.111508957887138   0.125093189180142   1.0000000
B2   B   0.389051245406681   0.611255105052972   0.624920884137012   1.0000000
B2   B   0.888974104699925   0.111353154699670   0.125035031537388   1.0000000
B2   B   0.222229899626438   0.777961644687223   0.624966972061132   1.0000000
B2   B   0.055633283465154   0.277990737196248   0.624961306643069   1.0000000
B2   B   0.389100163030647   0.278160066875724   0.624862539031804   1.0000000
B2   B   0.555691954692188   0.777959355732259   0.624958557527365   1.0000000
B2   B   0.888870234417646   0.777882473986537   0.624911328674455   1.0000000
B2   B   0.722375587735177   0.278150651969214   0.624896123957445   1.0000000
B2   B   0.055536634571473   0.777890219704542   0.125053205772258   1.0000000
B2   B   0.389026417778471   0.777968853971038   0.125021216259342   1.0000000
B2   B   0.222344752437200   0.277981238173539   0.125042043053869   1.0000000
B2   B   0.722351984251627   0.777905801166365   0.125079776617699   1.0000000
B2   B   0.555820109610270   0.278228209148108   0.125184341561152   1.0000000
B2   B   0.888953266916718   0.277986965385774   0.125075316059324   1.0000000
B2   B   0.055584311102938   0.444603371501508   0.624931418612840   1.0000000
B2   B   0.222303741011248   0.944667510895138   0.624977029469400   1.0000000
B2   B   0.555703877857427   0.944695675243888   0.624984197369665   1.0000000
B2   B   0.389137820859146   0.444582214289805   0.624813539414514   1.0000000
B2   B   0.888969823127764   0.944606998603580   0.624969521210594   1.0000000
B2   B   0.055607675835763   0.944646257729620   0.125030597233664   1.0000000
B2   B   0.722253421807513   0.444589224631752   0.623751093620727   1.0000000
B2   B   0.389017452658775   0.944747257296417   0.125032479651783   1.0000000
B2   B   0.222319520752459   0.444621575993363   0.125064817254229   1.0000000
B2   B   0.222271044938679   0.611242453177817   0.125024902899615   1.0000000
B2   B   0.555720205831063   0.444584627495579   0.125898047708152   1.0000000
B2   B   0.722350077040568   0.944680465849084   0.125031882388274   1.0000000
B2   B   0.888747299496904   0.444564625642143   0.125176723177719   1.0000000
B2   B   0.055449544245096   0.611216204753246   0.624895907274801   1.0000000
B2   B   0.222325012634484   0.111405895092284   0.624937422721853   1.0000000
B2   B   0.722253504030071   0.611135753293217   0.624856631755434   1.0000000
B2   B   0.555734493647365   0.111508957887138   0.624906810819858   1.0000000
B2   B   0.888974104699925   0.111353154699670   0.624964968462612   1.0000000


