data_1
_audit_creation_method   'vasp2cif'
_cell_length_a    14.93631414619966
_cell_length_b    14.936314146199727
_cell_length_c    13.341276283792837
_cell_angle_alpha    90.0
_cell_angle_beta    90.0
_cell_angle_gamma    119.99999999999984

_symmetry_space_group_name_H-M    'P 1'
loop_
_atom_site_label
_atom_site_type_symbol
_atom_site_fract_x
_atom_site_fract_y
_atom_site_fract_z
_atom_site_occupancy
Al2   Al   0.476674507606748   0.405003920470042   0.375000000000000   1.0000000
N2   N   0.111336613460235   0.055662086753793   0.125004321802279   1.0000000
N2   N   0.611405848792092   0.555784529180866   0.124805732734319   1.0000000
N2   N   0.444686291688534   0.055653917177424   0.124895362025263   1.0000000
N2   N   0.944669630938501   0.555664942666452   0.124981436605875   1.0000000
N2   N   0.778019824286424   0.055676578809883   0.124952596466661   1.0000000
N2   N   0.111334703121990   0.722334018227660   0.624987156560637   1.0000000
N2   N   0.444686291688534   0.722365707844452   0.625104637974736   1.0000000
N2   N   0.277996296833245   0.222318347260189   0.624059226136917   1.0000000
N2   N   0.778025718753643   0.722368918323261   0.625211577444385   1.0000000
N2   N   0.611356156078926   0.222305668810314   0.625192542198169   1.0000000
N2   N   0.944681488173628   0.222338863344438   0.625061695744887   1.0000000
N2   N   0.278011027574728   0.722344781939310   0.124939949401650   1.0000000
N2   N   0.111344878241026   0.222339105787174   0.125211897496241   1.0000000
N2   N   0.444695335412126   0.222315334662660   0.125674686060833   1.0000000
N2   N   0.611356156078926   0.722383820601940   0.124807457801838   1.0000000
N2   N   0.944669630938501   0.722338021605378   0.124981436605875   1.0000000
N2   N   0.778019428987880   0.222328580826340   0.124891185467132   1.0000000
N2   N   0.111337660523703   0.888999148889816   0.625038495048237   1.0000000
N2   N   0.444683931917204   0.889008632625284   0.625121525443697   1.0000000
N2   N   0.277996296833245   0.389011282906378   0.624059226136917   1.0000000
N2   N   0.611405848792092   0.388954652944541   0.625194267265674   1.0000000
N2   N   0.778019428987880   0.889024181494868   0.625108814532854   1.0000000
N2   N   0.944679259966899   0.389000709449271   0.625079750418207   1.0000000
N2   N   0.111336613460235   0.389007860039770   0.125004321802279   1.0000000
N2   N   0.278011027574728   0.888999578968754   0.124939949401650   1.0000000
N2   N   0.611352727050234   0.889025195623586   0.124900211670572   1.0000000
N2   N   0.444695830309864   0.389014581821599   0.128828098036338   1.0000000
N2   N   0.944679259966899   0.889011883850957   0.124920249581793   1.0000000
N2   N   0.778025718753643   0.388990133763717   0.124788422555622   1.0000000
N2   N   0.278012132602878   0.555685772696119   0.624860645964866   1.0000000
N2   N   0.111336613460235   0.055662086753793   0.624995678197728   1.0000000
N2   N   0.611405848792092   0.555784529180866   0.625194267265674   1.0000000
N2   N   0.444686291688534   0.055653917177424   0.625104637974736   1.0000000
N2   N   0.944669630938501   0.555664942666452   0.625018563394118   1.0000000
N2   N   0.111337660523703   0.555671844967223   0.124961504951763   1.0000000
N2   N   0.778019824286424   0.055676578809883   0.625047403533339   1.0000000
N2   N   0.278012132602878   0.055659693240095   0.125139354035134   1.0000000
N2   N   0.444695335412126   0.555713334082794   0.125674686060833   1.0000000
N2   N   0.778009645284007   0.555671489308661   0.124852647891294   1.0000000
N2   N   0.611352727050234   0.055660864759969   0.124900211670572   1.0000000
N2   N   0.444695335412126   0.555713334082794   0.624325313939167   1.0000000
N2   N   0.944681488173628   0.055675958162533   0.124938304255114   1.0000000
N2   N   0.278011027574728   0.722344781939310   0.625060050598350   1.0000000
N2   N   0.111344878241026   0.222339105787174   0.624788102503766   1.0000000
N2   N   0.444695335412126   0.222315334662660   0.624325313939167   1.0000000
N2   N   0.611356156078926   0.722383820601940   0.625192542198169   1.0000000
N2   N   0.944669630938501   0.722338021605378   0.625018563394118   1.0000000
N2   N   0.778019428987880   0.222328580826340   0.625108814532854   1.0000000
N2   N   0.111334703121990   0.722334018227660   0.125012843439356   1.0000000
N2   N   0.444686291688534   0.722365707844452   0.124895362025263   1.0000000
N2   N   0.277996296833245   0.222318347260189   0.125940773863083   1.0000000
N2   N   0.778025718753643   0.722368918323261   0.124788422555622   1.0000000
N2   N   0.611356156078926   0.222305668810314   0.124807457801838   1.0000000
N2   N   0.944681488173628   0.222338863344438   0.124938304255114   1.0000000
N2   N   0.111336613460235   0.389007860039770   0.624995678197728   1.0000000
N2   N   0.278011027574728   0.888999578968754   0.625060050598350   1.0000000
N2   N   0.611352727050234   0.889025195623586   0.625099788329421   1.0000000
N2   N   0.444695830309864   0.389014581821599   0.621171901963669   1.0000000
N2   N   0.944679259966899   0.889011883850957   0.625079750418207   1.0000000
N2   N   0.111337660523703   0.888999148889816   0.124961504951763   1.0000000
N2   N   0.778025718753643   0.388990133763717   0.625211577444385   1.0000000
N2   N   0.444683931917204   0.889008632625284   0.124878474556303   1.0000000
N2   N   0.277996296833245   0.389011282906378   0.125940773863083   1.0000000
N2   N   0.278012132602878   0.555685772696119   0.125139354035134   1.0000000
N2   N   0.611405848792092   0.388954652944541   0.124805732734319   1.0000000
N2   N   0.778019428987880   0.889024181494868   0.124891185467132   1.0000000
N2   N   0.944679259966899   0.389000709449271   0.124920249581793   1.0000000
N2   N   0.111337660523703   0.555671844967223   0.625038495048237   1.0000000
N2   N   0.278012132602878   0.055659693240095   0.624860645964866   1.0000000
N2   N   0.778009645284007   0.555671489308661   0.625147352108699   1.0000000
N2   N   0.611352727050234   0.055660864759969   0.625099788329421   1.0000000
N2   N   0.944681488173628   0.055675958162533   0.625061695744887   1.0000000
N2   N   0.057393027471347   0.112075251070532   0.375000000000000   1.0000000
N2   N   0.556039337673342   0.613729469440473   0.375000000000000   1.0000000
N2   N   0.388749148222931   0.106832935488921   0.375000000000000   1.0000000
N2   N   0.888774064801406   0.611053699067378   0.375000000000000   1.0000000
N2   N   0.723762684396417   0.111575761366177   0.375000000000000   1.0000000
N2   N   0.055432439135050   0.777717684729839   0.875000000000000   1.0000000
N2   N   0.388766060034605   0.777717097129227   0.875000000000000   1.0000000
N2   N   0.222102027051485   0.277717680192410   0.875000000000000   1.0000000
N2   N   0.722096698721897   0.777714120576622   0.875000000000000   1.0000000
N2   N   0.555424404211721   0.277711009968255   0.875000000000000   1.0000000
N2   N   0.888766918544591   0.277717570048323   0.875000000000000   1.0000000
N2   N   0.221889180029262   0.777611256681292   0.375000000000000   1.0000000
N2   N   0.057393027471347   0.278651109734151   0.375000000000000   1.0000000
N2   N   0.389083159173026   0.270279492944989   0.375000000000000   1.0000000
N2   N   0.556550019928359   0.779641517687293   0.375000000000000   1.0000000
N2   N   0.889221012723934   0.778004697432185   0.375000000000000   1.0000000
N2   N   0.723439758541474   0.277726147643452   0.375000000000000   1.0000000
N2   N   0.055431779226448   0.944383949151925   0.875000000000000   1.0000000
N2   N   0.388766060034605   0.944382296238701   0.875000000000000   1.0000000
N2   N   0.222099827046863   0.444379751410717   0.875000000000000   1.0000000
N2   N   0.555417043402892   0.444375188368110   0.875000000000000   1.0000000
N2   N   0.722096989850244   0.944381756544692   0.875000000000000   1.0000000
N2   N   0.888766838009799   0.444383231981600   0.875000000000000   1.0000000
N2   N   0.055901174642749   0.444968280354196   0.375000000000000   1.0000000
N2   N   0.221866932837763   0.943224345874627   0.375000000000000   1.0000000
N2   N   0.556602692193836   0.944968012763578   0.375000000000000   1.0000000
N2   N   0.389083159173026   0.452136999561373   0.375000000000000   1.0000000
N2   N   0.890306317760880   0.945407378960329   0.375000000000000   1.0000000
N2   N   0.722456065163928   0.444566494185438   0.375000000000000   1.0000000
N2   N   0.222098005417648   0.611046761531976   0.875000000000000   1.0000000
N2   N   0.055432853095048   0.111050041989598   0.875000000000000   1.0000000
N2   N   0.555424404211721   0.611046727576802   0.875000000000000   1.0000000
N2   N   0.388765519630884   0.111050841569930   0.875000000000000   1.0000000
N2   N   0.888767527829184   0.611050430581267   0.875000000000000   1.0000000
N2   N   0.055262277236293   0.611167231250668   0.375000000000000   1.0000000
N2   N   0.722096989850244   0.111048566638872   0.875000000000000   1.0000000
N2   N   0.222482577920796   0.109921782485602   0.375000000000000   1.0000000
N2   N   0.388749148222931   0.615249546067346   0.375000000000000   1.0000000
N2   N   0.722456065163928   0.611222904311818   0.375000000000000   1.0000000
N2   N   0.556550019928359   0.110241835574395   0.375000000000000   1.0000000
N2   N   0.388765519630884   0.611048011394304   0.875000000000000   1.0000000
N2   N   0.890665874037051   0.111999603685200   0.375000000000000   1.0000000
N2   N   0.222098708600704   0.777716020967017   0.875000000000000   1.0000000
N2   N   0.055432853095048   0.277716144438786   0.875000000000000   1.0000000
N2   N   0.388769805073532   0.277723251336812   0.875000000000000   1.0000000
N2   N   0.555429391475526   0.777716089637567   0.875000000000000   1.0000000
N2   N   0.888766838009799   0.777716939361535   0.875000000000000   1.0000000
N2   N   0.722096698721897   0.277715911478624   0.875000000000000   1.0000000
N2   N   0.055262277236293   0.777428379318960   0.375000000000000   1.0000000
N2   N   0.389061397356476   0.779086567780751   0.375000000000000   1.0000000
N2   N   0.225132543754644   0.279232938543994   0.375000000000000   1.0000000
N2   N   0.723439758541474   0.779046944231365   0.375000000000000   1.0000000
N2   N   0.556039337673342   0.275643201566205   0.375000000000000   1.0000000
N2   N   0.890306317760880   0.278232272133888   0.375000000000000   1.0000000
N2   N   0.055431779226448   0.444381163407851   0.875000000000000   1.0000000
N2   N   0.222098005417648   0.944384577219000   0.875000000000000   1.0000000
N2   N   0.555430093421682   0.944381713377502   0.875000000000000   1.0000000
N2   N   0.388769805073532   0.444379887070057   0.875000000000000   1.0000000
N2   N   0.888766918544591   0.944382681829597   0.875000000000000   1.0000000
N2   N   0.055901174642749   0.944266227621867   0.375000000000000   1.0000000
N2   N   0.722096299311879   0.444382969743567   0.875000000000000   1.0000000
N2   N   0.389061397356476   0.943308162909061   0.375000000000000   1.0000000
N2   N   0.222482577920796   0.445894128768537   0.375000000000000   1.0000000
N2   N   0.221866932837763   0.611975920296471   0.375000000000000   1.0000000
N2   N   0.723762684396417   0.945520256363568   0.375000000000000   1.0000000
N2   N   0.889221012723934   0.444549648625092   0.375000000000000   1.0000000
N2   N   0.055432439135050   0.611048087738540   0.875000000000000   1.0000000
N2   N   0.222099827046863   0.111053408969475   0.875000000000000   1.0000000
N2   N   0.722096299311879   0.611046662901648   0.875000000000000   1.0000000
N2   N   0.555429391475526   0.111046635171295   0.875000000000000   1.0000000
N2   N   0.888766629982212   0.111049981657774   0.875000000000000   1.0000000
B2   B   0.111956504099121   0.055493930157774   0.375000000000000   1.0000000
B2   B   0.613491097590311   0.560623134506329   0.375000000000000   1.0000000
B2   B   0.445162260883724   0.053449765967080   0.375000000000000   1.0000000
B2   B   0.944503393450090   0.555594236187009   0.375000000000000   1.0000000
B2   B   0.779654001537720   0.056493667435524   0.375000000000000   1.0000000
B2   B   0.110989005688217   0.722161169510773   0.875000000000000   1.0000000
B2   B   0.444312282369921   0.722153927655170   0.875000000000000   1.0000000
B2   B   0.277644731540947   0.222159741470635   0.875000000000000   1.0000000
B2   B   0.777655834284607   0.722162256328824   0.875000000000000   1.0000000
B2   B   0.610980216230560   0.222155659981029   0.875000000000000   1.0000000
B2   B   0.944330096054971   0.222162676427625   0.875000000000000   1.0000000
B2   B   0.277810996530224   0.722794686359544   0.375000000000000   1.0000000
B2   B   0.114008389246787   0.223670861290054   0.375000000000000   1.0000000
B2   B   0.443309193177957   0.216454536153439   0.375000000000000   1.0000000
B2   B   0.612560974469524   0.724946678984108   0.375000000000000   1.0000000
B2   B   0.944503393450090   0.722242490596438   0.375000000000000   1.0000000
B2   B   0.779410826701822   0.222489094145555   0.375000000000000   1.0000000
B2   B   0.110989357534610   0.888834132362723   0.875000000000000   1.0000000
B2   B   0.444315239957560   0.888824286645448   0.875000000000000   1.0000000
B2   B   0.277644731540947   0.388818323403648   0.875000000000000   1.0000000
B2   B   0.610976879107808   0.388819417573802   0.875000000000000   1.0000000
B2   B   0.777659714493691   0.888832477044285   0.875000000000000   1.0000000
B2   B   0.944328878596835   0.388826096582519   0.875000000000000   1.0000000
B2   B   0.111956504099121   0.389795907274675   0.375000000000000   1.0000000
B2   B   0.277810996530224   0.888349643503994   0.375000000000000   1.0000000
B2   B   0.612644878890271   0.890301873850344   0.375000000000000   1.0000000
B2   B   0.945165521761313   0.889307725947866   0.375000000000000   1.0000000
B2   B   0.778580407727577   0.388653582473956   0.375000000000000   1.0000000
B2   B   0.277648572086730   0.555483872239863   0.875000000000000   1.0000000
B2   B   0.110990182451854   0.055501030124632   0.875000000000000   1.0000000
B2   B   0.610976879107808   0.555490794867334   0.875000000000000   1.0000000
B2   B   0.444312282369921   0.055491688048093   0.875000000000000   1.0000000
B2   B   0.944327754007039   0.555495258144143   0.875000000000000   1.0000000
B2   B   0.111037171439227   0.555947066021396   0.375000000000000   1.0000000
B2   B   0.777661125622379   0.055497229477865   0.875000000000000   1.0000000
B2   B   0.277651918773427   0.053986362021626   0.375000000000000   1.0000000
B2   B   0.443309193177957   0.560187990357862   0.375000000000000   1.0000000
B2   B   0.778298131788502   0.555815732560919   0.375000000000000   1.0000000
B2   B   0.612644878890271   0.055676338373255   0.375000000000000   1.0000000
B2   B   0.444310408738756   0.555487836396701   0.875000000000000   1.0000000
B2   B   0.946449273086700   0.056716870462730   0.375000000000000   1.0000000
B2   B   0.277650031038311   0.722154905947088   0.875000000000000   1.0000000
B2   B   0.110990765507690   0.222162049420509   0.875000000000000   1.0000000
B2   B   0.444310408738756   0.222155905675398   0.875000000000000   1.0000000
B2   B   0.610980216230560   0.722157889582847   0.875000000000000   1.0000000
B2   B   0.944327754007039   0.722165829196238   0.875000000000000   1.0000000
B2   B   0.777659714493691   0.222160570782734   0.875000000000000   1.0000000
B2   B   0.110900283288334   0.722116808310828   0.375000000000000   1.0000000
B2   B   0.445162260883724   0.725045828249979   0.375000000000000   1.0000000
B2   B   0.279787913194067   0.221616182693650   0.375000000000000   1.0000000
B2   B   0.778580407727577   0.723260158586949   0.375000000000000   1.0000000
B2   B   0.612560974469524   0.220947628818752   0.375000000000000   1.0000000
B2   B   0.946449273086707   0.223065735957306   0.375000000000000   1.0000000
B2   B   0.110990182451854   0.388822485660550   0.875000000000000   1.0000000
B2   B   0.277650031038311   0.888828458424580   0.875000000000000   1.0000000
B2   B   0.610985523478578   0.888827115452738   0.875000000000000   1.0000000
B2   B   0.444307376577962   0.388820354955641   0.875000000000000   1.0000000
B2   B   0.944328878596835   0.888836115347630   0.875000000000000   1.0000000
B2   B   0.111037171439227   0.888423438751160   0.375000000000000   1.0000000
B2   B   0.777655834284607   0.388826911289126   0.875000000000000   1.0000000
B2   B   0.445287625109733   0.889310479221534   0.375000000000000   1.0000000
B2   B   0.279787913194067   0.391505063833745   0.375000000000000   1.0000000
B2   B   0.277651918773427   0.556998890085130   0.375000000000000   1.0000000
B2   B   0.613491097590311   0.386201296417311   0.375000000000000   1.0000000
B2   B   0.779410826701822   0.890255065889603   0.375000000000000   1.0000000
B2   B   0.945165521761313   0.389191129146776   0.375000000000000   1.0000000
B2   B   0.110989357534610   0.555488558505209   0.875000000000000   1.0000000
B2   B   0.277648572086730   0.055498033180210   0.875000000000000   1.0000000
B2   B   0.777653796008661   0.555493564671002   0.875000000000000   1.0000000
B2   B   0.610985523478578   0.055491741359176   0.875000000000000   1.0000000
B2   B   0.944330096054971   0.055500752960689   0.875000000000000   1.0000000
B2   B   0.055814193376260   0.111249285317434   0.125090886468092   1.0000000
B2   B   0.555780025886604   0.611281690069417   0.125063881262590   1.0000000
B2   B   0.389099106752172   0.111186187194641   0.125245686707061   1.0000000
B2   B   0.889139455405627   0.611236394369492   0.124888012641557   1.0000000
B2   B   0.722462371427616   0.111212957424943   0.124911766959574   1.0000000
B2   B   0.055805935599787   0.777911676730011   0.625024374668286   1.0000000
B2   B   0.389115448771828   0.777899919665565   0.625102469583255   1.0000000
B2   B   0.222452340890891   0.277892837112113   0.624060996452859   1.0000000
B2   B   0.722460531310479   0.777937579381067   0.625244471644227   1.0000000
B2   B   0.555780025886604   0.277831669150530   0.624936118737409   1.0000000
B2   B   0.889146243343114   0.277883610759189   0.625093338063056   1.0000000
B2   B   0.222460542432249   0.777896937882789   0.124958846634056   1.0000000
B2   B   0.055814193376268   0.277898241392162   0.125090886468092   1.0000000
B2   B   0.388997849931508   0.277699532889061   0.127103076287994   1.0000000
B2   B   0.555778478367064   0.777925920637124   0.124864823674899   1.0000000
B2   B   0.889152064989569   0.777935900884470   0.124851685629807   1.0000000
B2   B   0.722460531310479   0.277856285262747   0.124755528355773   1.0000000
B2   B   0.055809762931794   0.944588296496516   0.625042314034653   1.0000000
B2   B   0.389115448771828   0.944548862439584   0.625102469583255   1.0000000
B2   B   0.222448336295467   0.444559958185138   0.624592238967629   1.0000000
B2   B   0.555996711289068   0.444665022311198   0.623205505174183   1.0000000
B2   B   0.722462371427616   0.944582747336002   0.625088233040432   1.0000000
B2   B   0.889152064989569   0.444549497438428   0.625148314370207   1.0000000
B2   B   0.055809762931794   0.444554799768607   0.124957685965347   1.0000000
B2   B   0.222460350228961   0.944569601535144   0.125008311648276   1.0000000
B2   B   0.555783732861539   0.944558533097434   0.124896802528728   1.0000000
B2   B   0.388997849931508   0.444631650375783   0.127103076287994   1.0000000
B2   B   0.889146243343114   0.944595965917260   0.124906661936944   1.0000000
B2   B   0.722482156534816   0.444540005130667   0.124644331291519   1.0000000
B2   B   0.222460350228961   0.611224082027161   0.624991688351724   1.0000000
B2   B   0.055814193376260   0.111249285317434   0.624909113531908   1.0000000
B2   B   0.555780025886604   0.611281690069417   0.624936118737409   1.0000000
B2   B   0.389099106752172   0.111186187194641   0.624754313292946   1.0000000
B2   B   0.889139455405627   0.611236394369492   0.625111987358443   1.0000000
B2   B   0.055805935599787   0.611227592203104   0.124975625331728   1.0000000
B2   B   0.722462371427616   0.111212957424943   0.625088233040432   1.0000000
B2   B   0.222448336295467   0.111221711443664   0.125407761032371   1.0000000
B2   B   0.389099106752172   0.611246252890880   0.125245686707061   1.0000000
B2   B   0.722482156534816   0.611275484737499   0.124644331291519   1.0000000
B2   B   0.555778478367064   0.111185891063261   0.124864823674899   1.0000000
B2   B   0.389099106752172   0.611246252890880   0.624754313292946   1.0000000
B2   B   0.889144406420913   0.111238869877127   0.124956221302461   1.0000000
B2   B   0.222460542432249   0.777896937882789   0.625041153365944   1.0000000
B2   B   0.055814193376260   0.277898241392162   0.624909113531908   1.0000000
B2   B   0.388997849931508   0.277699532889061   0.622896923712013   1.0000000
B2   B   0.555778478367064   0.777925920637124   0.625135176325108   1.0000000
B2   B   0.889152064989569   0.777935900884470   0.625148314370207   1.0000000
B2   B   0.722460531310479   0.277856285262747   0.625244471644227   1.0000000
B2   B   0.055805935599787   0.777911676730011   0.124975625331728   1.0000000
B2   B   0.389115448771828   0.777899919665565   0.124897530416745   1.0000000
B2   B   0.222452340890891   0.277892837112113   0.125939003547141   1.0000000
B2   B   0.722460531310479   0.777937579381067   0.124755528355773   1.0000000
B2   B   0.555780025886604   0.277831669150530   0.125063881262590   1.0000000
B2   B   0.889146243343114   0.277883610759189   0.124906661936944   1.0000000
B2   B   0.055809762931794   0.444554799768607   0.625042314034653   1.0000000
B2   B   0.222460350228961   0.944569601535144   0.624991688351724   1.0000000
B2   B   0.555783732861539   0.944558533097434   0.625103197471272   1.0000000
B2   B   0.388997849931508   0.444631650375783   0.622896923712013   1.0000000
B2   B   0.889146243343114   0.944595965917260   0.625093338063056   1.0000000
B2   B   0.055809762931794   0.944588296496516   0.124957685965347   1.0000000
B2   B   0.722482156534816   0.444540005130667   0.625355668708473   1.0000000
B2   B   0.389115448771828   0.944548862439584   0.124897530416745   1.0000000
B2   B   0.222448336295467   0.444559958185138   0.125407761032371   1.0000000
B2   B   0.222460350228961   0.611224082027161   0.125008311648276   1.0000000
B2   B   0.555996711289068   0.444665022311198   0.126794494825824   1.0000000
B2   B   0.722462371427616   0.944582747336002   0.124911766959574   1.0000000
B2   B   0.889152064989569   0.444549497438428   0.124851685629807   1.0000000
B2   B   0.055805935599787   0.611227592203104   0.625024374668286   1.0000000
B2   B   0.222448336295467   0.111221711443664   0.624592238967629   1.0000000
B2   B   0.722482156534816   0.611275484737499   0.625355668708473   1.0000000
B2   B   0.555778478367064   0.111185891063261   0.625135176325108   1.0000000
B2   B   0.889144406420913   0.111238869877127   0.625043778697540   1.0000000


