data_1
_audit_creation_method   'vasp2cif'
_cell_length_a    14.93631414619966
_cell_length_b    14.936314146199727
_cell_length_c    13.341276283792837
_cell_angle_alpha    90.0
_cell_angle_beta    90.0
_cell_angle_gamma    119.99999999999984

_symmetry_space_group_name_H-M    'P 1'
loop_
_atom_site_label
_atom_site_type_symbol
_atom_site_fract_x
_atom_site_fract_y
_atom_site_fract_z
_atom_site_occupancy
N2   N   0.111104960736976   0.055550518020573   0.124993361521113   1.0000000
N2   N   0.611125407087655   0.555584147508638   0.125051965612502   1.0000000
N2   N   0.444444872367580   0.055555801841605   0.125026326213003   1.0000000
N2   N   0.944444198158395   0.555555127632420   0.125026326213003   1.0000000
N2   N   0.777778079852096   0.055555706592716   0.124989484123367   1.0000000
N2   N   0.111110466453736   0.722221899893532   0.624990879872619   1.0000000
N2   N   0.444444872367580   0.722222403859311   0.624973673786997   1.0000000
N2   N   0.277764083412345   0.222209804995607   0.624993909136122   1.0000000
N2   N   0.777790195004393   0.722235916587654   0.624993909136122   1.0000000
N2   N   0.611112388249933   0.222209804995607   0.624993909136122   1.0000000
N2   N   0.944444293407284   0.222221920147904   0.625010515876633   1.0000000
N2   N   0.277778100106467   0.722221899893532   0.125009120127388   1.0000000
N2   N   0.111105212937763   0.222219273135542   0.124990211163564   1.0000000
N2   N   0.444446735652399   0.222226804638126   0.125111782754125   1.0000000
N2   N   0.611112388249933   0.722235916587654   0.125006090863878   1.0000000
N2   N   0.944444198158395   0.722222403859311   0.125026326213003   1.0000000
N2   N   0.777780726864457   0.222219273135542   0.124990211163564   1.0000000
N2   N   0.111111226205414   0.888888773794586   0.624985733019219   1.0000000
N2   N   0.444444214255843   0.888888773794586   0.624985733019219   1.0000000
N2   N   0.277764083412345   0.388887611750067   0.624993909136122   1.0000000
N2   N   0.611125407087655   0.388874592912345   0.624948034387498   1.0000000
N2   N   0.777780726864457   0.888894787062237   0.625009788836444   1.0000000
N2   N   0.944449481979427   0.388887776049731   0.625006638478887   1.0000000
N2   N   0.111104960736976   0.388887776049731   0.124993361521113   1.0000000
N2   N   0.277778100106467   0.888889533546264   0.125009120127388   1.0000000
N2   N   0.611112223950269   0.888895039263024   0.124993361521113   1.0000000
N2   N   0.444415852491361   0.388874592912345   0.125051965612502   1.0000000
N2   N   0.944449481979427   0.888895039263024   0.124993361521113   1.0000000
N2   N   0.777790195004393   0.388887611750067   0.125006090863878   1.0000000
N2   N   0.277777596140689   0.555555127632420   0.624973673786997   1.0000000
N2   N   0.111104960736976   0.055550518020573   0.625006638478887   1.0000000
N2   N   0.611125407087655   0.555584147508638   0.624948034387498   1.0000000
N2   N   0.444444872367580   0.055555801841605   0.624973673786997   1.0000000
N2   N   0.944444198158395   0.555555127632420   0.624973673786997   1.0000000
N2   N   0.111111226205414   0.555555785744157   0.125014266980780   1.0000000
N2   N   0.777778079852096   0.055555706592716   0.625010515876633   1.0000000
N2   N   0.277777596140689   0.055555801841605   0.125026326213003   1.0000000
N2   N   0.444446735652399   0.555553264347601   0.125111782754125   1.0000000
N2   N   0.777773195361874   0.555553264347601   0.125111782754125   1.0000000
N2   N   0.611112223950269   0.055550518020573   0.124993361521113   1.0000000
N2   N   0.444446735652399   0.555553264347601   0.624888217245875   1.0000000
N2   N   0.944444293407284   0.055555706592716   0.124989484123367   1.0000000
N2   N   0.277778100106467   0.722221899893532   0.624990879872619   1.0000000
N2   N   0.111105212937763   0.222219273135542   0.625009788836444   1.0000000
N2   N   0.444446735652399   0.222226804638126   0.624888217245875   1.0000000
N2   N   0.611112388249933   0.722235916587654   0.624993909136122   1.0000000
N2   N   0.944444198158395   0.722222403859311   0.624973673786997   1.0000000
N2   N   0.777780726864457   0.222219273135542   0.625009788836444   1.0000000
N2   N   0.111110466453736   0.722221899893532   0.125009120127388   1.0000000
N2   N   0.444444872367580   0.722222403859311   0.125026326213003   1.0000000
N2   N   0.277764083412345   0.222209804995607   0.125006090863878   1.0000000
N2   N   0.777790195004393   0.722235916587654   0.125006090863878   1.0000000
N2   N   0.611112388249933   0.222209804995607   0.125006090863878   1.0000000
N2   N   0.944444293407284   0.222221920147904   0.124989484123367   1.0000000
N2   N   0.111104960736976   0.388887776049731   0.625006638478887   1.0000000
N2   N   0.277778100106467   0.888889533546264   0.624990879872619   1.0000000
N2   N   0.611112223950269   0.888895039263024   0.625006638478887   1.0000000
N2   N   0.444415852491361   0.388874592912345   0.624948034387498   1.0000000
N2   N   0.944449481979427   0.888895039263024   0.625006638478887   1.0000000
N2   N   0.111111226205414   0.888888773794586   0.125014266980780   1.0000000
N2   N   0.777790195004393   0.388887611750067   0.624993909136122   1.0000000
N2   N   0.444444214255843   0.888888773794586   0.125014266980780   1.0000000
N2   N   0.277764083412345   0.388887611750067   0.125006090863878   1.0000000
N2   N   0.277777596140689   0.555555127632420   0.125026326213003   1.0000000
N2   N   0.611125407087655   0.388874592912345   0.125051965612502   1.0000000
N2   N   0.777780726864457   0.888894787062237   0.124990211163564   1.0000000
N2   N   0.944449481979427   0.388887776049731   0.124993361521113   1.0000000
N2   N   0.111111226205414   0.555555785744157   0.624985733019219   1.0000000
N2   N   0.277777596140689   0.055555801841605   0.624973673786997   1.0000000
N2   N   0.777773195361874   0.555553264347601   0.624888217245875   1.0000000
N2   N   0.611112223950269   0.055550518020573   0.625006638478887   1.0000000
N2   N   0.944444293407284   0.055555706592716   0.625010515876633   1.0000000
N2   N   0.054900964188235   0.110676588014332   0.375000000000000   1.0000000
N2   N   0.556596421749424   0.616425325670169   0.375000000000000   1.0000000
N2   N   0.388640073886588   0.110613481106526   0.375000000000000   1.0000000
N2   N   0.889386518893474   0.611359926113412   0.375000000000000   1.0000000
N2   N   0.722442290492754   0.110676588014332   0.375000000000000   1.0000000
N2   N   0.055554674438302   0.777778097208343   0.875000000000000   1.0000000
N2   N   0.388890089436706   0.777778097208343   0.875000000000000   1.0000000
N2   N   0.222223859664379   0.277778596498857   0.875000000000000   1.0000000
N2   N   0.722221403501143   0.777776140335621   0.875000000000000   1.0000000
N2   N   0.555554557291532   0.277778145630246   0.875000000000000   1.0000000
N2   N   0.888889874771419   0.277779274177969   0.875000000000000   1.0000000
N2   N   0.222222222222221   0.777777777777779   0.375000000000000   1.0000000
N2   N   0.054900964188235   0.277557709507246   0.375000000000000   1.0000000
N2   N   0.383574674329831   0.273504429412591   0.375000000000000   1.0000000
N2   N   0.555505152379036   0.779826686288681   0.375000000000000   1.0000000
N2   N   0.890988200576302   0.779826686288681   0.375000000000000   1.0000000
N2   N   0.723297719386308   0.276702280613692   0.375000000000000   1.0000000
N2   N   0.055555962716234   0.944444037283766   0.875000000000000   1.0000000
N2   N   0.388890089436706   0.944445325561698   0.875000000000000   1.0000000
N2   N   0.222221636698180   0.444445203361776   0.875000000000000   1.0000000
N2   N   0.555555555555557   0.444444444444443   0.875000000000000   1.0000000
N2   N   0.722220725822031   0.944443933926793   0.875000000000000   1.0000000
N2   N   0.888890233330260   0.444445203361776   0.875000000000000   1.0000000
N2   N   0.055652470153514   0.444638273640357   0.375000000000000   1.0000000
N2   N   0.222134910292290   0.944110768207546   0.375000000000000   1.0000000
N2   N   0.555361726359643   0.944347529846486   0.375000000000000   1.0000000
N2   N   0.383574674329831   0.443403578250576   0.375000000000000   1.0000000
N2   N   0.889323411985668   0.945099035811765   0.375000000000000   1.0000000
N2   N   0.726495570587409   0.443403578250576   0.375000000000000   1.0000000
N2   N   0.222221902791657   0.611109910563294   0.875000000000000   1.0000000
N2   N   0.055556066073207   0.111110125228581   0.875000000000000   1.0000000
N2   N   0.555554557291532   0.611109744994629   0.875000000000000   1.0000000
N2   N   0.388890004402936   0.111113342139214   0.875000000000000   1.0000000
N2   N   0.888886657860786   0.611109995597064   0.875000000000000   1.0000000
N2   N   0.055889231792454   0.611357475418080   0.375000000000000   1.0000000
N2   N   0.722220725822031   0.111110125228581   0.875000000000000   1.0000000
N2   N   0.220173313711320   0.109011799423698   0.375000000000000   1.0000000
N2   N   0.388640073886588   0.611359926113412   0.375000000000000   1.0000000
N2   N   0.726495570587409   0.616425325670169   0.375000000000000   1.0000000
N2   N   0.555505152379036   0.109011799423698   0.375000000000000   1.0000000
N2   N   0.388890004402936   0.611109995597064   0.875000000000000   1.0000000
N2   N   0.888888888888886   0.111111111111114   0.375000000000000   1.0000000
N2   N   0.222222222222221   0.777777777777779   0.875000000000000   1.0000000
N2   N   0.055556066073207   0.277779274177969   0.875000000000000   1.0000000
N2   N   0.388890255005371   0.277778145630246   0.875000000000000   1.0000000
N2   N   0.555554796638224   0.777778363301820   0.875000000000000   1.0000000
N2   N   0.888890233330260   0.777778363301820   0.875000000000000   1.0000000
N2   N   0.722221403501143   0.277778596498857   0.875000000000000   1.0000000
N2   N   0.055889231792454   0.777865089707710   0.375000000000000   1.0000000
N2   N   0.388642524581920   0.777865089707710   0.375000000000000   1.0000000
N2   N   0.220071227894041   0.276702280613692   0.375000000000000   1.0000000
N2   N   0.723297719386308   0.779928772105958   0.375000000000000   1.0000000
N2   N   0.556596421749424   0.273504429412591   0.375000000000000   1.0000000
N2   N   0.889323411985668   0.277557709507246   0.375000000000000   1.0000000
N2   N   0.055555962716234   0.444445258765804   0.875000000000000   1.0000000
N2   N   0.222221902791657   0.944445325561698   0.875000000000000   1.0000000
N2   N   0.555554741234196   0.944444037283766   0.875000000000000   1.0000000
N2   N   0.388890255005371   0.444445442708468   0.875000000000000   1.0000000
N2   N   0.888889874771419   0.944443933926793   0.875000000000000   1.0000000
N2   N   0.055652470153514   0.944347529846486   0.375000000000000   1.0000000
N2   N   0.722221854369755   0.444445442708468   0.875000000000000   1.0000000
N2   N   0.388642524581920   0.944110768207546   0.375000000000000   1.0000000
N2   N   0.220173313711320   0.444494847620964   0.375000000000000   1.0000000
N2   N   0.222134910292290   0.611357475418080   0.375000000000000   1.0000000
N2   N   0.722442290492754   0.945099035811765   0.375000000000000   1.0000000
N2   N   0.890988200576302   0.444494847620964   0.375000000000000   1.0000000
N2   N   0.055554674438302   0.611109910563294   0.875000000000000   1.0000000
N2   N   0.222221636698180   0.111109766669740   0.875000000000000   1.0000000
N2   N   0.722221854369755   0.611109744994629   0.875000000000000   1.0000000
N2   N   0.555554796638224   0.111109766669740   0.875000000000000   1.0000000
N2   N   0.888888888888886   0.111111111111114   0.875000000000000   1.0000000
B2   B   0.109956952533244   0.054681217348293   0.375000000000000   1.0000000
B2   B   0.616949386723339   0.567232106780015   0.375000000000000   1.0000000
B2   B   0.444364617013764   0.054948628029892   0.375000000000000   1.0000000
B2   B   0.945051371970108   0.555635382986236   0.375000000000000   1.0000000
B2   B   0.778069377070589   0.055701355201962   0.375000000000000   1.0000000
B2   B   0.111108696362484   0.722221014847906   0.875000000000000   1.0000000
B2   B   0.444446649248185   0.722220585818188   0.875000000000000   1.0000000
B2   B   0.277782481411869   0.222225329225801   0.875000000000000   1.0000000
B2   B   0.777774670774199   0.722217518588132   0.875000000000000   1.0000000
B2   B   0.611109514480604   0.222225329225801   0.875000000000000   1.0000000
B2   B   0.944444782678085   0.222222898689506   0.875000000000000   1.0000000
B2   B   0.277677484066928   0.722322515933072   0.375000000000000   1.0000000
B2   B   0.109653510425246   0.221493421879284   0.375000000000000   1.0000000
B2   B   0.444122709464664   0.221578752262657   0.375000000000000   1.0000000
B2   B   0.612014146354999   0.726272723079055   0.375000000000000   1.0000000
B2   B   0.945051371970108   0.722749322317207   0.375000000000000   1.0000000
B2   B   0.778506578120716   0.221493421879284   0.375000000000000   1.0000000
B2   B   0.111109929991658   0.888890070008342   0.875000000000000   1.0000000
B2   B   0.444446806683356   0.888890070008342   0.875000000000000   1.0000000
B2   B   0.277782481411869   0.388890485519396   0.875000000000000   1.0000000
B2   B   0.611112965649017   0.388887034350983   0.875000000000000   1.0000000
B2   B   0.777776672010565   0.888886677354466   0.875000000000000   1.0000000
B2   B   0.944443331433633   0.388888395733939   0.875000000000000   1.0000000
B2   B   0.109956952533244   0.388609068518280   0.375000000000000   1.0000000
B2   B   0.277677484066928   0.888688301467185   0.375000000000000   1.0000000
B2   B   0.611390931481720   0.890043047466756   0.375000000000000   1.0000000
B2   B   0.432767893219985   0.383050613276661   0.375000000000000   1.0000000
B2   B   0.945318782651707   0.890043047466756   0.375000000000000   1.0000000
B2   B   0.780925243390720   0.387985853645001   0.375000000000000   1.0000000
B2   B   0.277779414181812   0.555553350751815   0.875000000000000   1.0000000
B2   B   0.111111730966978   0.055556668566367   0.875000000000000   1.0000000
B2   B   0.611112965649017   0.555559264631362   0.875000000000000   1.0000000
B2   B   0.444446649248185   0.055559396763333   0.875000000000000   1.0000000
B2   B   0.944440603236667   0.555553350751815   0.875000000000000   1.0000000
B2   B   0.111173690267666   0.555680713868653   0.375000000000000   1.0000000
B2   B   0.777777101310494   0.055555217321915   0.875000000000000   1.0000000
B2   B   0.277250677682793   0.054948628029892   0.375000000000000   1.0000000
B2   B   0.444122709464664   0.555877290535336   0.375000000000000   1.0000000
B2   B   0.778421247737343   0.555877290535336   0.375000000000000   1.0000000
B2   B   0.611390931481720   0.054681217348293   0.375000000000000   1.0000000
B2   B   0.444448106679964   0.555551893320036   0.875000000000000   1.0000000
B2   B   0.944298644798038   0.055701355201962   0.375000000000000   1.0000000
B2   B   0.277778985152094   0.722221014847906   0.875000000000000   1.0000000
B2   B   0.111113322645534   0.222223327989435   0.875000000000000   1.0000000
B2   B   0.444448106679964   0.222229546693257   0.875000000000000   1.0000000
B2   B   0.611109514480604   0.722217518588132   0.875000000000000   1.0000000
B2   B   0.944440603236667   0.722220585818188   0.875000000000000   1.0000000
B2   B   0.777776672010565   0.222223327989435   0.875000000000000   1.0000000
B2   B   0.111311698532815   0.722322515933072   0.375000000000000   1.0000000
B2   B   0.444364617013764   0.722749322317207   0.375000000000000   1.0000000
B2   B   0.273727276920945   0.219074756609280   0.375000000000000   1.0000000
B2   B   0.780925243390720   0.726272723079055   0.375000000000000   1.0000000
B2   B   0.612014146354999   0.219074756609280   0.375000000000000   1.0000000
B2   B   0.944298644798038   0.221930622929411   0.375000000000000   1.0000000
B2   B   0.111111730966978   0.388888395733939   0.875000000000000   1.0000000
B2   B   0.277778985152094   0.888891303637516   0.875000000000000   1.0000000
B2   B   0.611111604266061   0.888888269033022   0.875000000000000   1.0000000
B2   B   0.444440735368638   0.388887034350983   0.875000000000000   1.0000000
B2   B   0.944443331433633   0.888888269033022   0.875000000000000   1.0000000
B2   B   0.111173690267666   0.888826309732334   0.375000000000000   1.0000000
B2   B   0.777774670774199   0.388890485519396   0.875000000000000   1.0000000
B2   B   0.444319286131347   0.888826309732334   0.375000000000000   1.0000000
B2   B   0.273727276920945   0.387985853645001   0.375000000000000   1.0000000
B2   B   0.277250677682793   0.555635382986236   0.375000000000000   1.0000000
B2   B   0.616949386723339   0.383050613276661   0.375000000000000   1.0000000
B2   B   0.778506578120716   0.890346489574754   0.375000000000000   1.0000000
B2   B   0.945318782651707   0.388609068518280   0.375000000000000   1.0000000
B2   B   0.111109929991658   0.555553193316644   0.875000000000000   1.0000000
B2   B   0.277779414181812   0.055559396763333   0.875000000000000   1.0000000
B2   B   0.777770453306743   0.555551893320036   0.875000000000000   1.0000000
B2   B   0.611111604266061   0.055556668566367   0.875000000000000   1.0000000
B2   B   0.944444782678085   0.055555217321915   0.875000000000000   1.0000000
B2   B   0.055550812000793   0.111110132134131   0.124992457760666   1.0000000
B2   B   0.555559225197627   0.611115767007438   0.125078739909299   1.0000000
B2   B   0.388893110185276   0.111119553703894   0.125022850669234   1.0000000
B2   B   0.888880446296106   0.611106889814724   0.125022850669234   1.0000000
B2   B   0.722225986800002   0.111110132134131   0.124992457760666   1.0000000
B2   B   0.055552360177424   0.777778248383063   0.625002992119627   1.0000000
B2   B   0.388892554872304   0.777778248383063   0.625002992119627   1.0000000
B2   B   0.222220822926417   0.277777078129873   0.625004810458281   1.0000000
B2   B   0.722222921870127   0.777779177073583   0.625004810458281   1.0000000
B2   B   0.555559225197627   0.277776791523524   0.624921260090701   1.0000000
B2   B   0.888889867865869   0.277774013199998   0.625007542239335   1.0000000
B2   B   0.222222222222221   0.777777777777779   0.124990689194894   1.0000000
B2   B   0.055550812000793   0.277774013199998   0.124992457760666   1.0000000
B2   B   0.388884232992562   0.277776791523524   0.125078739909299   1.0000000
B2   B   0.555565589505042   0.777782299677416   0.124995881261966   1.0000000
B2   B   0.888883376839037   0.777782299677416   0.124995881261966   1.0000000
B2   B   0.722222921870127   0.277777078129873   0.124995189541719   1.0000000
B2   B   0.055552074349209   0.944447925650791   0.625008681402326   1.0000000
B2   B   0.388892554872304   0.944447639822576   0.625002992119627   1.0000000
B2   B   0.222217700322585   0.444434410494958   0.625004118738034   1.0000000
B2   B   0.555555555555557   0.444444444444443   0.624795360984589   1.0000000
B2   B   0.722225986800002   0.944449187999207   0.625007542239335   1.0000000
B2   B   0.888883376839037   0.444434410494958   0.625004118738034   1.0000000
B2   B   0.055552074349209   0.444437482031747   0.124991318597674   1.0000000
B2   B   0.222221751616937   0.944447639822576   0.124997007880373   1.0000000
B2   B   0.555562517968253   0.944447925650791   0.124991318597674   1.0000000
B2   B   0.388884232992562   0.444440774802373   0.125078739909299   1.0000000
B2   B   0.888889867865869   0.944449187999207   0.124992457760666   1.0000000
B2   B   0.722223208476476   0.444440774802373   0.125078739909299   1.0000000
B2   B   0.222221751616937   0.611107445127697   0.625002992119627   1.0000000
B2   B   0.055550812000793   0.111110132134131   0.625007542239335   1.0000000
B2   B   0.555559225197627   0.611115767007438   0.624921260090701   1.0000000
B2   B   0.388893110185276   0.111119553703894   0.624977149330766   1.0000000
B2   B   0.888880446296106   0.611106889814724   0.624977149330766   1.0000000
B2   B   0.055552360177424   0.611107445127697   0.124997007880373   1.0000000
B2   B   0.722225986800002   0.111110132134131   0.625007542239335   1.0000000
B2   B   0.222217700322585   0.111116623160970   0.124995881261966   1.0000000
B2   B   0.388893110185276   0.611106889814724   0.125022850669234   1.0000000
B2   B   0.722223208476476   0.611115767007438   0.125078739909299   1.0000000
B2   B   0.555565589505042   0.111116623160970   0.124995881261966   1.0000000
B2   B   0.388893110185276   0.611106889814724   0.624977149330766   1.0000000
B2   B   0.888888888888886   0.111111111111114   0.124994664574040   1.0000000
B2   B   0.222222222222221   0.777777777777779   0.625009310805107   1.0000000
B2   B   0.055550812000793   0.277774013199998   0.625007542239335   1.0000000
B2   B   0.388884232992562   0.277776791523524   0.624921260090701   1.0000000
B2   B   0.555565589505042   0.777782299677416   0.625004118738034   1.0000000
B2   B   0.888883376839037   0.777782299677416   0.625004118738034   1.0000000
B2   B   0.722222921870127   0.277777078129873   0.625004810458281   1.0000000
B2   B   0.055552360177424   0.777778248383063   0.124997007880373   1.0000000
B2   B   0.388892554872304   0.777778248383063   0.124997007880373   1.0000000
B2   B   0.222220822926417   0.277777078129873   0.124995189541719   1.0000000
B2   B   0.722222921870127   0.777779177073583   0.124995189541719   1.0000000
B2   B   0.555559225197627   0.277776791523524   0.125078739909299   1.0000000
B2   B   0.888889867865869   0.277774013199998   0.124992457760666   1.0000000
B2   B   0.055552074349209   0.444437482031747   0.625008681402326   1.0000000
B2   B   0.222221751616937   0.944447639822576   0.625002992119627   1.0000000
B2   B   0.555562517968253   0.944447925650791   0.625008681402326   1.0000000
B2   B   0.388884232992562   0.444440774802373   0.624921260090701   1.0000000
B2   B   0.888889867865869   0.944449187999207   0.625007542239335   1.0000000
B2   B   0.055552074349209   0.944447925650791   0.124991318597674   1.0000000
B2   B   0.722223208476476   0.444440774802373   0.624921260090701   1.0000000
B2   B   0.388892554872304   0.944447639822576   0.124997007880373   1.0000000
B2   B   0.222217700322585   0.444434410494958   0.124995881261966   1.0000000
B2   B   0.222221751616937   0.611107445127697   0.124997007880373   1.0000000
B2   B   0.555555555555557   0.444444444444443   0.125204639015411   1.0000000
B2   B   0.722225986800002   0.944449187999207   0.124992457760666   1.0000000
B2   B   0.888883376839037   0.444434410494958   0.124995881261966   1.0000000
B2   B   0.055552360177424   0.611107445127697   0.625002992119627   1.0000000
B2   B   0.222217700322585   0.111116623160970   0.625004118738034   1.0000000
B2   B   0.722223208476476   0.611115767007438   0.624921260090701   1.0000000
B2   B   0.555565589505042   0.111116623160970   0.625004118738034   1.0000000
B2   B   0.888888888888886   0.111111111111114   0.625005335425960   1.0000000
B2   B   0.555555555555557   0.444444444444443   0.375000000000000   1.0000000


