data_1
_audit_creation_method   'vasp2cif'
_cell_length_a    17.52789999999977
_cell_length_b    17.52789999999977
_cell_length_c    15.0
_cell_angle_alpha    90.0
_cell_angle_beta    90.0
_cell_angle_gamma    119.99999999999916

_symmetry_space_group_name_H-M    'P 1'
loop_
_atom_site_label
_atom_site_type_symbol
_atom_site_fract_x
_atom_site_fract_y
_atom_site_fract_z
_atom_site_occupancy
B2   B   0.903078519736868   0.951103557252342   0.111217365627575   1.0000000
B2   B   0.905761778017103   0.095731041477223   0.111182254040209   1.0000000
B2   B   0.906362264905929   0.238895479298467   0.111105320613063   1.0000000
B2   B   0.905761778017103   0.381459430230874   0.111182254040209   1.0000000
B2   B   0.903078519736868   0.523405367732530   0.111217365627575   1.0000000
B2   B   0.900371389455574   0.664941232909887   0.110221487860382   1.0000000
B2   B   0.900371389455574   0.806860561793686   0.110221487860382   1.0000000
B2   B   0.046118390519745   0.951530793406209   0.111075407396349   1.0000000
B2   B   0.048228593271540   0.095577516179222   0.110956108479457   1.0000000
B2   B   0.049786139817290   0.239254667714882   0.111032860845741   1.0000000
B2   B   0.049786139817290   0.381961877349407   0.111032860845741   1.0000000
B2   B   0.048228593271540   0.524081482340313   0.110956108479457   1.0000000
B2   B   0.046118390519745   0.666019713917535   0.111075407396349   1.0000000
B2   B   0.045206484609797   0.808319300706901   0.110816171956623   1.0000000
B2   B   0.189481475024988   0.951918008121070   0.111097133246618   1.0000000
B2   B   0.191288828830584   0.096094379727233   0.110669926806577   1.0000000
B2   B   0.193257657142866   0.239972507663405   0.110406420371784   1.0000000
B2   B   0.194035463858048   0.382732934552523   0.111452290809580   1.0000000
B2   B   0.193257657142866   0.524715554727462   0.110406420371784   1.0000000
B2   B   0.191288828830584   0.666624854351342   0.110669926806577   1.0000000
B2   B   0.189481475024988   0.808995583707919   0.111097133246618   1.0000000
B2   B   0.332909059201282   0.952170588002141   0.111281513434016   1.0000000
B2   B   0.333401536628373   0.095379808233525   0.110689795938924   1.0000000
B2   B   0.336710743357552   0.240902178090178   0.109061456703374   1.0000000
B2   B   0.338693495677670   0.384188367528296   0.112330830461266   1.0000000
B2   B   0.338693495677670   0.525935533396371   0.112330830461266   1.0000000
B2   B   0.336710743357552   0.667238970514373   0.109061456703374   1.0000000
B2   B   0.333401536628373   0.809452133641851   0.110689795938924   1.0000000
B2   B   0.476336651963804   0.952580828812111   0.111264748376147   1.0000000
B2   B   0.476336651963804   0.095186228398693   0.111264748376147   1.0000000
B2   B   0.476758634003690   0.238095038623410   0.110693278846333   1.0000000
B2   B   0.483436619946874   0.386044820116731   0.107185155345470   1.0000000
B2   B   0.484032069570154   0.527731237409081   0.130219468182010   1.0000000
B2   B   0.483436619946873   0.668822205077142   0.107185155345470   1.0000000
B2   B   0.476758634003690   0.810094000627289   0.110693278846333   1.0000000
B2   B   0.619552188095094   0.953134203142495   0.111483816916953   1.0000000
B2   B   0.619609920116250   0.095519306903619   0.111113217383576   1.0000000
B2   B   0.619552188095094   0.237848390199596   0.111483816916953   1.0000000
B2   B   0.619289764909181   0.379839255423130   0.111832549455570   1.0000000
B2   B   0.603996557580486   0.514418688995132   0.109374716217305   1.0000000
B2   B   0.603996557580483   0.661008273833346   0.109374716217306   1.0000000
B2   B   0.619289764909181   0.810880914733045   0.111832549455570   1.0000000
B2   B   0.762069567913262   0.952598519113764   0.111727139979253   1.0000000
B2   B   0.762901867335029   0.095819341396978   0.111137150345697   1.0000000
B2   B   0.762901867335029   0.238511219629047   0.111137150345697   1.0000000
B2   B   0.762069567913262   0.380901454046496   0.111727139979253   1.0000000
B2   B   0.757015090381825   0.522226779043016   0.111214037021333   1.0000000
B2   B   0.752246476777426   0.661838441012709   0.107870573396862   1.0000000
B2   B   0.757015090381825   0.806218716586811   0.111214037021333   1.0000000
N2   N   0.950051041434395   0.902927228738902   0.110955653159590   1.0000000
N2   N   0.952456932160128   0.047202706841878   0.111132433467843   1.0000000
N2   N   0.954189670781130   0.191327038763470   0.111087453956282   1.0000000
N2   N   0.954189670781130   0.334289614135658   0.111087453956282   1.0000000
N2   N   0.952456932160128   0.476681207436248   0.111132433467843   1.0000000
N2   N   0.950051041434395   0.618552506370492   0.110955653159590   1.0000000
N2   N   0.949095123421031   0.760261908548013   0.110275761057671   1.0000000
N2   N   0.093744371042708   0.903883810214515   0.111020637633100   1.0000000
N2   N   0.095402206114663   0.047585452191343   0.111049328928282   1.0000000
N2   N   0.097371107168990   0.191554045733606   0.110716798845895   1.0000000
N2   N   0.098232523655725   0.334830608664863   0.111173957552921   1.0000000
N2   N   0.097371107168990   0.477245755109386   0.110716798845895   1.0000000
N2   N   0.095402206114663   0.619245447598322   0.111049328928282   1.0000000
N2   N   0.093744371042708   0.761290966059197   0.111020637633100   1.0000000
N2   N   0.237338041513763   0.904384223372376   0.111153644218720   1.0000000
N2   N   0.237983968248247   0.047597677070383   0.110904574480782   1.0000000
N2   N   0.240730026915053   0.192366209984807   0.109915360773464   1.0000000
N2   N   0.242686217748271   0.335998604920729   0.111163705712105   1.0000000
N2   N   0.242686217748271   0.478116306501540   0.111163705712105   1.0000000
N2   N   0.240730026915053   0.619792510605242   0.109915360773464   1.0000000
N2   N   0.237983968248247   0.761814984852867   0.110904574480782   1.0000000
N2   N   0.380865874715757   0.904726234158763   0.111231379683235   1.0000000
N2   N   0.380865874715757   0.047568334231996   0.111231379683235   1.0000000
N2   N   0.381808964003280   0.191045857043770   0.109777890953961   1.0000000
N2   N   0.387261504026237   0.338136455569241   0.108103311837846   1.0000000
N2   N   0.389818510444933   0.480623602059461   0.118170476750018   1.0000000
N2   N   0.387261504026237   0.620553742131994   0.108103311837846   1.0000000
N2   N   0.381808964003280   0.762191800634511   0.109777890953961   1.0000000
N2   N   0.524226033158274   0.905254431289502   0.111324330306166   1.0000000
N2   N   0.524128248582428   0.047777615350719   0.111217441820498   1.0000000
N2   N   0.524226033158274   0.190400295543771   0.111324330306166   1.0000000
N2   N   0.524877176209923   0.333395482333999   0.110550322461902   1.0000000
N2   N   0.524877176209922   0.762910387550923   0.110550322461902   1.0000000
N2   N   0.667091082387625   0.905646165095376   0.111936820352308   1.0000000
N2   N   0.667462973097982   0.048244797443787   0.111126061653353   1.0000000
N2   N   0.667462973097982   0.190645157773200   0.111126061653353   1.0000000
N2   N   0.667091082387625   0.332873610967253   0.111936820352308   1.0000000
N2   N   0.660872433862375   0.474254480480083   0.112309225275477   1.0000000
N2   N   0.652670659338402   0.612049676507202   0.106211584426422   1.0000000
N2   N   0.660872433862375   0.758046647057302   0.112309225275477   1.0000000
N2   N   0.807282382088986   0.902739953868447   0.111578947536354   1.0000000
N2   N   0.810399344048989   0.048048113178948   0.111318627507063   1.0000000
N2   N   0.810871396052310   0.191149189085159   0.110984203718874   1.0000000
N2   N   0.810399344048989   0.333778212988046   0.111318627507063   1.0000000
N2   N   0.807282382088986   0.475971121894537   0.111578947536354   1.0000000
N2   N   0.803654514125376   0.617128057338717   0.109384836210245   1.0000000
N2   N   0.803654514125376   0.757955150461658   0.109384836210245   1.0000000


