data_1
_audit_creation_method   'vasp2cif'
_cell_length_a    17.52789999999977
_cell_length_b    17.52789999999977
_cell_length_c    15.0
_cell_angle_alpha    90.0
_cell_angle_beta    90.0
_cell_angle_gamma    119.99999999999916

_symmetry_space_group_name_H-M    'P 1'
loop_
_atom_site_label
_atom_site_type_symbol
_atom_site_fract_x
_atom_site_fract_y
_atom_site_fract_z
_atom_site_occupancy
B2   B   0.907059860948748   0.953670418767688   0.111159900917801   1.0000000
B2   B   0.904744221915444   0.095023695551123   0.111120677677162   1.0000000
B2   B   0.903900472891550   0.237607301485043   0.111242947529843   1.0000000
B2   B   0.903779317754319   0.380700281910750   0.111174518290637   1.0000000
B2   B   0.904237653828512   0.523936592972886   0.111198653985420   1.0000000
B2   B   0.906513297663700   0.667516928599261   0.111496858699521   1.0000000
B2   B   0.908644038936389   0.811468194445332   0.111349790467616   1.0000000
B2   B   0.049763466152362   0.953478217602545   0.111179144850738   1.0000000
B2   B   0.048322470525817   0.095493214744723   0.111165977498098   1.0000000
B2   B   0.046707440278194   0.237426136352645   0.111226890910252   1.0000000
B2   B   0.046163845563696   0.380176760789970   0.111267961219310   1.0000000
B2   B   0.046590074875716   0.523411085011451   0.111210998155285   1.0000000
B2   B   0.047992819015355   0.666858380835425   0.111222795393167   1.0000000
B2   B   0.049656906238741   0.810320027179535   0.111282635567065   1.0000000
B2   B   0.192009435090712   0.952982900875150   0.111191213704266   1.0000000
B2   B   0.191520066875798   0.095722828617384   0.111203530263606   1.0000000
B2   B   0.189783738126204   0.237417521095035   0.111367100206622   1.0000000
B2   B   0.188391913740654   0.379536952835612   0.111485338587538   1.0000000
B2   B   0.188685154010928   0.522822956063874   0.111633752377218   1.0000000
B2   B   0.189583645310128   0.666366287429829   0.111385709566034   1.0000000
B2   B   0.191562183317548   0.809782014647420   0.111198664572932   1.0000000
B2   B   0.334407009548442   0.952583843939800   0.111175762764083   1.0000000
B2   B   0.334370257720094   0.095785216652574   0.111261163642253   1.0000000
B2   B   0.333623609967789   0.238323752385007   0.111380191118778   1.0000000
B2   B   0.330764262177351   0.378653178487066   0.111236187368950   1.0000000
B2   B   0.330285433090183   0.521874186254812   0.111609028040395   1.0000000
B2   B   0.330635405503714   0.665683730121704   0.111907334400950   1.0000000
B2   B   0.333904114888202   0.809245164727776   0.111291952739840   1.0000000
B2   B   0.476838273647868   0.951817241385484   0.111094251097847   1.0000000
B2   B   0.476892743575679   0.095674413245082   0.111182257624110   1.0000000
B2   B   0.476728131208737   0.239479825416550   0.111333558898878   1.0000000
B2   B   0.475799205293278   0.382523376051223   0.111065020317317   1.0000000
B2   B   0.470583017949491   0.663629484180050   0.109733337766797   1.0000000
B2   B   0.476611953734269   0.807917649570395   0.111070082198846   1.0000000
B2   B   0.619376463658933   0.950902384595638   0.110919388153447   1.0000000
B2   B   0.619171000372103   0.094889867170087   0.111085298640527   1.0000000
B2   B   0.619119418549371   0.238955304986579   0.111213741487150   1.0000000
B2   B   0.619146854469923   0.383206879348372   0.111228876768692   1.0000000
B2   B   0.617710953239532   0.527386507274822   0.110743213964753   1.0000000
B2   B   0.619336109568772   0.806743932223784   0.110387024402785   1.0000000
B2   B   0.762628397308913   0.952138998503038   0.110939257349504   1.0000000
B2   B   0.761652404319950   0.094744132624267   0.111098591050301   1.0000000
B2   B   0.761356024726499   0.238009396058580   0.111205929844257   1.0000000
B2   B   0.761370271456220   0.381441444542359   0.111179445516802   1.0000000
B2   B   0.761556687892620   0.524791040308503   0.111384355626595   1.0000000
B2   B   0.767224630201972   0.670004849061738   0.111119483102003   1.0000000
B2   B   0.767914923179074   0.812275161530520   0.110723429320389   1.0000000
C2   C   0.469220433276291   0.518565876349005   0.106835737971741   1.0000000
N2   N   0.954926337317941   0.906286676135187   0.111208735628561   1.0000000
N2   N   0.953334526925310   0.048281036685040   0.111094997446823   1.0000000
N2   N   0.951641401241389   0.190022732714984   0.111180087450570   1.0000000
N2   N   0.951119219398495   0.332779290020099   0.111226786313105   1.0000000
N2   N   0.951406467053518   0.475936559793130   0.111115291855408   1.0000000
N2   N   0.952904252053028   0.619237318212740   0.111255928405391   1.0000000
N2   N   0.954767938318352   0.762819116744626   0.111426114653340   1.0000000
N2   N   0.096991223378826   0.905526673481041   0.111173280116936   1.0000000
N2   N   0.096496577802819   0.048371931299340   0.111137839421667   1.0000000
N2   N   0.094874744535649   0.190250633712579   0.111236949452486   1.0000000
N2   N   0.093539895747380   0.332340456182500   0.111259969562340   1.0000000
N2   N   0.093653230529086   0.475329586765997   0.111310070998431   1.0000000
N2   N   0.094580524566280   0.618701907853905   0.111207015509894   1.0000000
N2   N   0.096409868338686   0.762182169896101   0.111202898000814   1.0000000
N2   N   0.239273553270018   0.905089149347744   0.111172350990433   1.0000000
N2   N   0.239258092644394   0.048187438096076   0.111198291245241   1.0000000
N2   N   0.238401298054277   0.190694976793773   0.111288601412755   1.0000000
N2   N   0.236177896613704   0.332111141840353   0.111504903077131   1.0000000
N2   N   0.235573948832460   0.474358719199308   0.111702257038811   1.0000000
N2   N   0.235805819695867   0.618058511008264   0.111681319657132   1.0000000
N2   N   0.238491512447263   0.761761238913291   0.111261503119715   1.0000000
N2   N   0.381692257332561   0.904615575950133   0.111141554753291   1.0000000
N2   N   0.381815402248317   0.047964299801258   0.111193091765302   1.0000000
N2   N   0.381598574820294   0.191114840405165   0.111329447534724   1.0000000
N2   N   0.380523572887523   0.333293819250217   0.111315644516847   1.0000000
N2   N   0.377139264756553   0.472660266584481   0.110484765823686   1.0000000
N2   N   0.375419559000423   0.616933240516025   0.112169623355402   1.0000000
N2   N   0.380940655242599   0.761244202146470   0.111413927129278   1.0000000
N2   N   0.524217815748923   0.903506542724451   0.111017189647542   1.0000000
N2   N   0.524137019010798   0.047378511473882   0.111073451126622   1.0000000
N2   N   0.524061602509804   0.191324159276532   0.111247959545059   1.0000000
N2   N   0.523949695140664   0.335405855372296   0.111272995347511   1.0000000
N2   N   0.521547818047904   0.478911946530365   0.110085821439135   1.0000000
N2   N   0.501467643284088   0.605356692786133   0.104274262561128   1.0000000
N2   N   0.524100791714762   0.759400368948460   0.110497502019542   1.0000000
N2   N   0.667263106186254   0.902797930190563   0.110770961771624   1.0000000
N2   N   0.666533050005680   0.046580441137602   0.110995061263514   1.0000000
N2   N   0.666299806611975   0.190500367878939   0.111156490812238   1.0000000
N2   N   0.666285086682809   0.334582313782781   0.111191465374243   1.0000000
N2   N   0.665923281505184   0.478960459627045   0.111211191075054   1.0000000
N2   N   0.673801439135950   0.623503711939191   0.110421749552368   1.0000000
N2   N   0.674513471376730   0.765995792828011   0.109931435776099   1.0000000
N2   N   0.812136968906032   0.906456436806612   0.111072920282664   1.0000000
N2   N   0.809508194830583   0.047265746306717   0.111015946495723   1.0000000
N2   N   0.808789379931729   0.190042465623856   0.111217010361612   1.0000000
N2   N   0.808666423543601   0.333333385537451   0.111144736489793   1.0000000
N2   N   0.808853352838984   0.476692109305382   0.111218225909981   1.0000000
N2   N   0.811480874554153   0.620023107662505   0.111611718333419   1.0000000
N2   N   0.814340105176560   0.764436532184706   0.111185023873545   1.0000000
O2   O   0.629609310911079   0.672509944212168   0.108284673087938   1.0000000


