data_1
_audit_creation_method   'vasp2cif'
_cell_length_a    17.52789999999977
_cell_length_b    17.52789999999977
_cell_length_c    15.0
_cell_angle_alpha    90.0
_cell_angle_beta    90.0
_cell_angle_gamma    119.99999999999916

_symmetry_space_group_name_H-M    'P 1'
loop_
_atom_site_label
_atom_site_type_symbol
_atom_site_fract_x
_atom_site_fract_y
_atom_site_fract_z
_atom_site_occupancy
B2   B   0.903831586884547   0.951029329602461   0.109461574267906   1.0000000
B2   B   0.905690854759418   0.094699408112205   0.109638756104324   1.0000000
B2   B   0.906199530773885   0.237790367727494   0.109067228987589   1.0000000
B2   B   0.905968013576658   0.380925358712588   0.108646034680762   1.0000000
B2   B   0.904481687104134   0.523768344269889   0.108895252958687   1.0000000
B2   B   0.903389144289195   0.666060551314252   0.108155077348787   1.0000000
B2   B   0.902452946806663   0.807986854160592   0.108548587079261   1.0000000
B2   B   0.048853931103302   0.955200461663572   0.108846675950239   1.0000000
B2   B   0.049614506022670   0.097213532529825   0.109279501416430   1.0000000
B2   B   0.049530301236739   0.239273694768385   0.109227670763604   1.0000000
B2   B   0.048252030881423   0.381955707428696   0.109236904418663   1.0000000
B2   B   0.047009702847080   0.525087597177606   0.109012152187087   1.0000000
B2   B   0.046593120880009   0.668264141856741   0.108478833912209   1.0000000
B2   B   0.046938514199360   0.811393422692975   0.108423540884053   1.0000000
B2   B   0.191644508975689   0.956561276698813   0.108049617048990   1.0000000
B2   B   0.196523232361336   0.103056263167658   0.108468250095825   1.0000000
B2   B   0.194837258490538   0.242583682093542   0.108611854129066   1.0000000
B2   B   0.191311285500854   0.383423034000554   0.110173834923709   1.0000000
B2   B   0.189005345512376   0.525929010314416   0.112551958999714   1.0000000
B2   B   0.188710031216233   0.669263553168167   0.110547729472559   1.0000000
B2   B   0.189749359000635   0.812539187864855   0.108594430771904   1.0000000
B2   B   0.333702548451986   0.955807588717404   0.108393160654979   1.0000000
B2   B   0.336565019557155   0.100974579617176   0.109256014981250   1.0000000
B2   B   0.348210737772069   0.253675485404316   0.109806848693695   1.0000000
B2   B   0.335862498934809   0.387357683128918   0.108432162229607   1.0000000
B2   B   0.331614623079299   0.527724626873105   0.118159969056048   1.0000000
B2   B   0.330606047106742   0.670831416046910   0.119506789957613   1.0000000
B2   B   0.332020279843281   0.812529394898349   0.109638177299312   1.0000000
B2   B   0.476157375966773   0.953528013384610   0.108742503063322   1.0000000
B2   B   0.477672465363051   0.095852077192353   0.111141456592913   1.0000000
B2   B   0.480212425188476   0.238458232453813   0.124844440748556   1.0000000
B2   B   0.473655981891113   0.810844838555341   0.113868637597111   1.0000000
B2   B   0.619100375387877   0.950811463470574   0.109827208332737   1.0000000
B2   B   0.620238327136063   0.094041697618341   0.109407586344429   1.0000000
B2   B   0.621567441946737   0.236292011476455   0.115962481522092   1.0000000
B2   B   0.622288658050939   0.377355640345510   0.126012129183948   1.0000000
B2   B   0.608464497779721   0.507364483069348   0.109399989872276   1.0000000
B2   B   0.613172242664373   0.654174832976229   0.108347527344872   1.0000000
B2   B   0.617986464395892   0.805069022767487   0.112464067422632   1.0000000
B2   B   0.761526462483748   0.950031004508995   0.109872623575810   1.0000000
B2   B   0.762832003490710   0.093831454562180   0.109301144723136   1.0000000
B2   B   0.763709482899487   0.236960142915873   0.109658563184541   1.0000000
B2   B   0.764027244279600   0.379639041558963   0.112207467849934   1.0000000
B2   B   0.760501618456914   0.520860340339474   0.110036664470937   1.0000000
B2   B   0.757154492862987   0.659823047861876   0.107853692295458   1.0000000
B2   B   0.757711985015626   0.803881417161803   0.108834365303184   1.0000000
C2   C   0.468490445568090   0.515598750009080   0.109384459359827   1.0000000
C2   C   0.491078425719591   0.445307383110030   0.108939644107386   1.0000000
N2   N   0.952159095158649   0.904504082546817   0.109046058593175   1.0000000
N2   N   0.953374278472921   0.047327269987954   0.109652196436886   1.0000000
N2   N   0.954034596639945   0.190426876648869   0.109386120540047   1.0000000
N2   N   0.953432977396779   0.333333291979367   0.108718007228434   1.0000000
N2   N   0.952248896849124   0.476429883522322   0.108558833855233   1.0000000
N2   N   0.951462127906982   0.619281474969932   0.108321358300238   1.0000000
N2   N   0.951103393158952   0.761739909639019   0.108349486704455   1.0000000
N2   N   0.095905416072079   0.907422066932810   0.108415909470013   1.0000000
N2   N   0.099208575413800   0.051983835352172   0.108941696065133   1.0000000
N2   N   0.098606098937833   0.193005020713472   0.109096510242352   1.0000000
N2   N   0.096351394831755   0.334733549440489   0.109275499742818   1.0000000
N2   N   0.094438575203211   0.477379837961223   0.109726376137223   1.0000000
N2   N   0.093881621381549   0.620601293548700   0.108968228123539   1.0000000
N2   N   0.094392532939351   0.763896021353683   0.108465897837258   1.0000000
N2   N   0.238278285959457   0.908156200025914   0.108118275584026   1.0000000
N2   N   0.241204669733475   0.052927281046281   0.107888446688174   1.0000000
N2   N   0.248454048542204   0.201229636747852   0.108370184232931   1.0000000
N2   N   0.241104133560736   0.337582452589036   0.108878691790268   1.0000000
N2   N   0.236540843078857   0.478275386686622   0.113065786961621   1.0000000
N2   N   0.235400918393234   0.621211455695058   0.113635106719716   1.0000000
N2   N   0.236803183656663   0.764625077482468   0.109454751463218   1.0000000
N2   N   0.380670312799247   0.907493722913625   0.108284127379237   1.0000000
N2   N   0.382348274508883   0.051147662418493   0.109444055125988   1.0000000
N2   N   0.386474612455460   0.197520709598039   0.112161704462551   1.0000000
N2   N   0.401222526576453   0.358250093803543   0.108359428762505   1.0000000
N2   N   0.378941214685715   0.481237694061142   0.109631754858670   1.0000000
N2   N   0.367688333953596   0.617113718720782   0.136098060526081   1.0000000
N2   N   0.378988928476177   0.764689651311105   0.112903052387361   1.0000000
N2   N   0.523693091918019   0.906041775639398   0.110053721679942   1.0000000
N2   N   0.524876102806709   0.048037769252396   0.108709805644316   1.0000000
N2   N   0.526645008080241   0.189808090180667   0.116751499218187   1.0000000
N2   N   0.533168189378076   0.326904745414193   0.149589468264848   1.0000000
N2   N   0.521010105595840   0.599380702516706   0.108140379400107   1.0000000
N2   N   0.527191324688534   0.772409415774741   0.120032328931889   1.0000000
N2   N   0.666330067068199   0.902233818636150   0.110327746277221   1.0000000
N2   N   0.667547567905355   0.046153360460414   0.109000675638958   1.0000000
N2   N   0.668725358083382   0.188918338358712   0.110794012442261   1.0000000
N2   N   0.670051424191396   0.330822405442059   0.118127567169861   1.0000000
N2   N   0.664748402249456   0.470610150519264   0.113164032149235   1.0000000
N2   N   0.659986300269285   0.606235125683139   0.107477218162549   1.0000000
N2   N   0.661080591635261   0.752449527975099   0.109201146260013   1.0000000
N2   N   0.807591058210470   0.900856444149232   0.109554866715385   1.0000000
N2   N   0.810146731221773   0.045934028323593   0.109657573051226   1.0000000
N2   N   0.811061297417660   0.189331458978698   0.109060920927891   1.0000000
N2   N   0.811353153244436   0.332307433275826   0.109276544197858   1.0000000
N2   N   0.809548517869516   0.474889044889446   0.110404775766474   1.0000000
N2   N   0.807673435728904   0.615981300305703   0.107939298586196   1.0000000
N2   N   0.805635296775088   0.756707210972348   0.108220229709495   1.0000000


