data_1
_audit_creation_method   'vasp2cif'
_cell_length_a    17.52789999999977
_cell_length_b    17.52789999999977
_cell_length_c    15.0
_cell_angle_alpha    90.0
_cell_angle_beta    90.0
_cell_angle_gamma    119.99999999999916

_symmetry_space_group_name_H-M    'P 1'
loop_
_atom_site_label
_atom_site_type_symbol
_atom_site_fract_x
_atom_site_fract_y
_atom_site_fract_z
_atom_site_occupancy
B2   B   0.909422611038178   0.954102776892367   0.110737997379006   1.0000000
B2   B   0.909112579307721   0.096073246891550   0.110757066108797   1.0000000
B2   B   0.908974832288198   0.238063950334679   0.110733824694506   1.0000000
B2   B   0.908997837301867   0.380446371139247   0.110707309280291   1.0000000
B2   B   0.908508755905874   0.523167507797439   0.110738628449920   1.0000000
B2   B   0.908030115167966   0.665987052865704   0.110756536657823   1.0000000
B2   B   0.905748738932256   0.808045990539993   0.110742403507255   1.0000000
B2   B   0.050897976725419   0.953878541377048   0.110701442054081   1.0000000
B2   B   0.052807442864280   0.097445884671934   0.110764251298853   1.0000000
B2   B   0.052214026794150   0.239082457528342   0.110799714464664   1.0000000
B2   B   0.051062442517915   0.381379528302567   0.110751066598672   1.0000000
B2   B   0.049726189559636   0.524521855340362   0.110724899516391   1.0000000
B2   B   0.049556040549322   0.667742164454979   0.110725967067606   1.0000000
B2   B   0.049631303344939   0.810686210815673   0.110732356638902   1.0000000
B2   B   0.193283716088544   0.954739582782281   0.110710959772497   1.0000000
B2   B   0.196333421874643   0.099398966898785   0.110707580906625   1.0000000
B2   B   0.196735192396803   0.241369068044282   0.110759801432628   1.0000000
B2   B   0.193955372486653   0.382273610075234   0.110749694064345   1.0000000
B2   B   0.190358123478533   0.525323422773880   0.110706181870899   1.0000000
B2   B   0.190296849326660   0.668780926633665   0.110737847090005   1.0000000
B2   B   0.191922002295137   0.811679716310957   0.110734528925246   1.0000000
B2   B   0.335351221799260   0.954620318456729   0.110723103061983   1.0000000
B2   B   0.337098713679820   0.097922684154093   0.110754613966081   1.0000000
B2   B   0.343410246471490   0.245968389003780   0.110758051750611   1.0000000
B2   B   0.340243754101913   0.385064061433910   0.110749305306848   1.0000000
B2   B   0.330120198255487   0.527257355039127   0.110697402873536   1.0000000
B2   B   0.329917488585959   0.670117747802080   0.110743551485383   1.0000000
B2   B   0.333917600423454   0.812359817145262   0.110785457427850   1.0000000
B2   B   0.477824484809849   0.953760051228687   0.110740781061320   1.0000000
B2   B   0.479015563597529   0.095351600459303   0.110758796304575   1.0000000
B2   B   0.480676008296062   0.237415960694702   0.110756870541604   1.0000000
B2   B   0.496714570221899   0.391048572054216   0.110711569164764   1.0000000
B2   B   0.467277921897317   0.669732131257602   0.110685600818434   1.0000000
B2   B   0.476207940289866   0.812163344030519   0.110742726474831   1.0000000
B2   B   0.621067574146108   0.954363699937985   0.110760057135401   1.0000000
B2   B   0.621962647729427   0.094802845015388   0.110740823600806   1.0000000
B2   B   0.622891530242915   0.235071390261305   0.110731670037356   1.0000000
B2   B   0.625113670855062   0.374274617324290   0.110782705302670   1.0000000
B2   B   0.610788497503714   0.497964702865552   0.110709063244222   1.0000000
B2   B   0.619331822627077   0.814472652001651   0.110709176845909   1.0000000
B2   B   0.765410170498316   0.953840616001390   0.110747761305284   1.0000000
B2   B   0.765514729242085   0.095416960028389   0.110731145679021   1.0000000
B2   B   0.766034300901776   0.236944650707124   0.110714825128601   1.0000000
B2   B   0.767112710288063   0.378625549342821   0.110712864042839   1.0000000
B2   B   0.766310241756411   0.519859677107304   0.110754427157984   1.0000000
B2   B   0.763634866022382   0.659208739689862   0.110747658616478   1.0000000
B2   B   0.767731656423035   0.812558167061424   0.110769316571502   1.0000000
As2   As   0.615138972743148   0.658975745807347   0.110667982782817   1.0000000
N2   N   0.954380200122776   0.904161138630822   0.110701654352543   1.0000000
N2   N   0.957111506856476   0.048943510974866   0.110745160333376   1.0000000
N2   N   0.956900305954530   0.190957885008301   0.110747759019562   1.0000000
N2   N   0.956383990927054   0.333102969916147   0.110719110859007   1.0000000
N2   N   0.955419445196847   0.475732041256672   0.110707684966030   1.0000000
N2   N   0.954819428014655   0.618667097993701   0.110726479290359   1.0000000
N2   N   0.953681336104809   0.761336909491192   0.110724024069552   1.0000000
N2   N   0.097721229965292   0.906077978071407   0.110692551334359   1.0000000
N2   N   0.100068051888897   0.049931528507528   0.110699692260714   1.0000000
N2   N   0.101046383211007   0.192784985770171   0.110768034347709   1.0000000
N2   N   0.099256012811300   0.334203638495332   0.110769476028003   1.0000000
N2   N   0.096603396657406   0.476627628192739   0.110721690829974   1.0000000
N2   N   0.096106719389527   0.619897730898017   0.110708796639757   1.0000000
N2   N   0.096722769915479   0.763080792547418   0.110714820063834   1.0000000
N2   N   0.240177981762928   0.906850624841029   0.110702439567972   1.0000000
N2   N   0.242000166054438   0.050324603935556   0.110699636739005   1.0000000
N2   N   0.246421353677332   0.196149340305279   0.110724815362226   1.0000000
N2   N   0.244664940640085   0.336999691374186   0.110732305737456   1.0000000
N2   N   0.237522389398973   0.477396682291748   0.110670935831574   1.0000000
N2   N   0.236459705736848   0.620667318154378   0.110710465007410   1.0000000
N2   N   0.238937473602983   0.763968906429373   0.110744175235440   1.0000000
N2   N   0.382696840011697   0.906991604247187   0.110731704078969   1.0000000
N2   N   0.383891539090348   0.049576872217677   0.110735392618458   1.0000000
N2   N   0.386217623158090   0.193686023393819   0.110740081229682   1.0000000
N2   N   0.396368936680083   0.345299331743216   0.110726817105226   1.0000000
N2   N   0.378803575210499   0.480841596205713   0.110728256110600   1.0000000
N2   N   0.374980156027311   0.621736593063321   0.110726797606453   1.0000000
N2   N   0.381130155712645   0.764775441485671   0.110755001935338   1.0000000
N2   N   0.525656965886160   0.906414960433870   0.110736663158502   1.0000000
N2   N   0.526673962835263   0.048105169076107   0.110735337584696   1.0000000
N2   N   0.527817490932310   0.189754152439043   0.110734899429706   1.0000000
N2   N   0.530621009831269   0.331764268996004   0.110749608013871   1.0000000
N2   N   0.466541631674181   0.523887432948677   0.111105526391380   1.0000000
N2   N   0.501810866964084   0.612698244223263   0.110668531268182   1.0000000
N2   N   0.523810109091996   0.763912195487473   0.110665397135720   1.0000000
N2   N   0.669289266102741   0.907510430180011   0.110730504290821   1.0000000
N2   N   0.670030538974520   0.048208736356433   0.110731069023037   1.0000000
N2   N   0.670789811323967   0.188956979501481   0.110714080909117   1.0000000
N2   N   0.672418947796661   0.329196716528711   0.110724053763493   1.0000000
N2   N   0.671795706588176   0.468314615333405   0.110757599852839   1.0000000
N2   N   0.666117536832035   0.596889489919672   0.110667941316702   1.0000000
N2   N   0.672846631918395   0.772946310915947   0.110718334092892   1.0000000
N2   N   0.813834776778310   0.906401056486406   0.110745606032914   1.0000000
N2   N   0.813440005807242   0.048141000035656   0.110725036675710   1.0000000
N2   N   0.813765305758981   0.190024416428481   0.110707306650305   1.0000000
N2   N   0.814289578348470   0.331862811000853   0.110682320953663   1.0000000
N2   N   0.813949106847358   0.473851940036006   0.110717548148160   1.0000000
N2   N   0.812665693820792   0.615487648769682   0.110744382474462   1.0000000
N2   N   0.807597750363671   0.756952080187544   0.110743259013517   1.0000000


