data_1
_audit_creation_method   'vasp2cif'
_cell_length_a    14.93631414619966
_cell_length_b    14.936314146199727
_cell_length_c    13.341276283792837
_cell_angle_alpha    90.0
_cell_angle_beta    90.0
_cell_angle_gamma    119.99999999999984

_symmetry_space_group_name_H-M    'P 1'
loop_
_atom_site_label
_atom_site_type_symbol
_atom_site_fract_x
_atom_site_fract_y
_atom_site_fract_z
_atom_site_occupancy
Ga2   Ga   0.477242322805299   0.405287828069415   0.375000000000000   1.0000000
N2   N   0.111004881149699   0.055489703007475   0.125081345792281   1.0000000
N2   N   0.611010681792019   0.555523371192672   0.127490332880988   1.0000000
N2   N   0.444333172927524   0.055471409347815   0.125136716153872   1.0000000
N2   N   0.944345953085858   0.555511904844496   0.125188677598794   1.0000000
N2   N   0.777666472821063   0.055499903077180   0.125217466590505   1.0000000
N2   N   0.111008436509649   0.722170884921388   0.625278612778105   1.0000000
N2   N   0.444333172927524   0.722195096912891   0.624863283846021   1.0000000
N2   N   0.277692244419421   0.222159701519997   0.623836531104935   1.0000000
N2   N   0.777676322412093   0.722162550136835   0.624226995121677   1.0000000
N2   N   0.610993479896816   0.222146426231621   0.624349635150845   1.0000000
N2   N   0.944343823365593   0.222175476503780   0.624801971221274   1.0000000
N2   N   0.277664795554464   0.722175337491731   0.124866094866994   1.0000000
N2   N   0.111034505960469   0.222183919646929   0.125291710093106   1.0000000
N2   N   0.444350530173080   0.222135683966040   0.126388238433310   1.0000000
N2   N   0.610993479896816   0.722180386998256   0.125650364849017   1.0000000
N2   N   0.944345953085858   0.722167381574617   0.125188677598794   1.0000000
N2   N   0.777663304705091   0.222170799054236   0.125367649613927   1.0000000
N2   N   0.110997040226223   0.888821746708912   0.625089651787245   1.0000000
N2   N   0.444329193385100   0.888831263359040   0.624928152417581   1.0000000
N2   N   0.277692244419421   0.388865876232827   0.623836531104935   1.0000000
N2   N   0.611010681792019   0.388820643932571   0.622509667119073   1.0000000
N2   N   0.777663304705091   0.888825838984203   0.624632350386038   1.0000000
N2   N   0.944336344226673   0.388841040583829   0.624773200709620   1.0000000
N2   N   0.111004881149699   0.388848511475503   0.125081345792281   1.0000000
N2   N   0.277664795554464   0.888822791396059   0.124866094866999   1.0000000
N2   N   0.610996257342344   0.888842471530022   0.125249009183803   1.0000000
N2   N   0.444436369330501   0.388884851331879   0.130541535987268   1.0000000
N2   N   0.944336344226673   0.888828636976233   0.125226799290389   1.0000000
N2   N   0.777676322412093   0.388847105608470   0.125773004878470   1.0000000
N2   N   0.277665380472721   0.555526160036155   0.624867081742162   1.0000000
N2   N   0.111004881149699   0.055489703007475   0.624918654207598   1.0000000
N2   N   0.611010681792019   0.555523371192672   0.622509667119073   1.0000000
N2   N   0.444333172927524   0.055471409347815   0.624863283846021   1.0000000
N2   N   0.944345953085858   0.555511904844496   0.624811322401241   1.0000000
N2   N   0.110997040226223   0.555508626850553   0.124910348212664   1.0000000
N2   N   0.777666472821063   0.055499903077180   0.624782533409365   1.0000000
N2   N   0.277665380472721   0.055472553769960   0.125132918257889   1.0000000
N2   N   0.444350530173080   0.555548179540301   0.126388238433313   1.0000000
N2   N   0.777671778562670   0.555502555948207   0.126303405354076   1.0000000
N2   N   0.610996257342344   0.055487119145590   0.125249009183803   1.0000000
N2   N   0.444350530173080   0.555548179540301   0.623611761566686   1.0000000
N2   N   0.944343823365593   0.055501680195159   0.125198028778784   1.0000000
N2   N   0.277664795554464   0.722175337491731   0.625133905133012   1.0000000
N2   N   0.111034505960469   0.222183919646929   0.624708289906868   1.0000000
N2   N   0.444350530173080   0.222135683966039   0.623611761566686   1.0000000
N2   N   0.610993479896816   0.722180386998256   0.624349635150845   1.0000000
N2   N   0.944345953085858   0.722167381574617   0.624811322401241   1.0000000
N2   N   0.777663304705091   0.222170799054236   0.624632350386038   1.0000000
N2   N   0.111008436509649   0.722170884921388   0.124721387221927   1.0000000
N2   N   0.444333172927524   0.722195096912891   0.125136716153872   1.0000000
N2   N   0.277692244419421   0.222159701519997   0.126163468894940   1.0000000
N2   N   0.777676322412093   0.722162550136835   0.125773004878472   1.0000000
N2   N   0.610993479896816   0.222146426231621   0.125650364849026   1.0000000
N2   N   0.944343823365593   0.222175476503780   0.125198028778784   1.0000000
N2   N   0.111004881149699   0.388848511475503   0.624918654207598   1.0000000
N2   N   0.277664795554464   0.888822791396059   0.625133905133012   1.0000000
N2   N   0.610996257342344   0.888842471530022   0.624750990816016   1.0000000
N2   N   0.444436369330501   0.388884851331879   0.619458464012602   1.0000000
N2   N   0.944336344226673   0.888828636976233   0.624773200709620   1.0000000
N2   N   0.110997040226223   0.888821746708912   0.124910348212664   1.0000000
N2   N   0.777676322412093   0.388847105608470   0.624226995121677   1.0000000
N2   N   0.444329193385100   0.888831263359040   0.125071847582497   1.0000000
N2   N   0.277692244419421   0.388865876232827   0.126163468894940   1.0000000
N2   N   0.277665380472721   0.555526160036155   0.125132918257889   1.0000000
N2   N   0.611010681792019   0.388820643932571   0.127490332880987   1.0000000
N2   N   0.777663304705091   0.888825838984203   0.125367649613927   1.0000000
N2   N   0.944336344226673   0.388841040583829   0.125226799290389   1.0000000
N2   N   0.110997040226223   0.555508626850553   0.625089651787245   1.0000000
N2   N   0.277665380472721   0.055472553769960   0.624867081742162   1.0000000
N2   N   0.777671778562670   0.555502555948207   0.623696594645896   1.0000000
N2   N   0.610996257342344   0.055487119145590   0.624750990816016   1.0000000
N2   N   0.944343823365593   0.055501680195164   0.624801971221274   1.0000000
N2   N   0.057462590212919   0.112114926479065   0.375000000000000   1.0000000
N2   N   0.556108783480101   0.613226651693908   0.375000000000000   1.0000000
N2   N   0.388898995264788   0.106565533937117   0.375000000000000   1.0000000
N2   N   0.888853522135116   0.611093427734478   0.375000000000000   1.0000000
N2   N   0.723981167551176   0.111703245283915   0.375000000000000   1.0000000
N2   N   0.055877553343540   0.777943838626989   0.875000000000000   1.0000000
N2   N   0.389222637305003   0.777941390392656   0.875000000000000   1.0000000
N2   N   0.222573545315338   0.277953439324325   0.875000000000000   1.0000000
N2   N   0.722560073545210   0.777950388013237   0.875000000000000   1.0000000
N2   N   0.555900509673887   0.277954100250347   0.875000000000000   1.0000000
N2   N   0.889225670853663   0.277940379088058   0.875000000000000   1.0000000
N2   N   0.222116670261356   0.777725001797445   0.375000000000000   1.0000000
N2   N   0.057462590212929   0.278680997067296   0.375000000000000   1.0000000
N2   N   0.388350908557214   0.268307736243697   0.375000000000000   1.0000000
N2   N   0.556852732584727   0.779626248138292   0.375000000000000   1.0000000
N2   N   0.889461035535485   0.778143305559007   0.375000000000000   1.0000000
N2   N   0.723640286363703   0.277873434682495   0.375000000000000   1.0000000
N2   N   0.055885882076943   0.944618816497462   0.875000000000000   1.0000000
N2   N   0.389222637305003   0.944614580245689   0.875000000000000   1.0000000
N2   N   0.222564658205194   0.444604995610042   0.875000000000000   1.0000000
N2   N   0.555896129718725   0.444614731526027   0.875000000000000   1.0000000
N2   N   0.722557479673943   0.944614001554809   0.875000000000000   1.0000000
N2   N   0.889220118613527   0.444603410860459   0.875000000000000   1.0000000
N2   N   0.056041986872713   0.445053825084172   0.375000000000000   1.0000000
N2   N   0.222025618813241   0.943265296144179   0.375000000000000   1.0000000
N2   N   0.556920285836865   0.945126809585079   0.375000000000000   1.0000000
N2   N   0.388350908557214   0.453376505646878   0.375000000000000   1.0000000
N2   N   0.890458355722450   0.945489918604983   0.375000000000000   1.0000000
N2   N   0.722683035782094   0.444846164108305   0.375000000000000   1.0000000
N2   N   0.222553248657868   0.611267233190787   0.875000000000000   1.0000000
N2   N   0.055893808550246   0.111285199651537   0.875000000000000   1.0000000
N2   N   0.555900509673887   0.611279742756927   0.875000000000000   1.0000000
N2   N   0.389234494011636   0.111294360304589   0.875000000000000   1.0000000
N2   N   0.889209728409397   0.611271530871257   0.875000000000000   1.0000000
N2   N   0.055411094710051   0.611256192358905   0.375000000000000   1.0000000
N2   N   0.722557479673943   0.111276811452376   0.875000000000000   1.0000000
N2   N   0.222476974478570   0.109840177394797   0.375000000000000   1.0000000
N2   N   0.388898995264788   0.615666794660907   0.375000000000000   1.0000000
N2   N   0.722683035782094   0.611170205007103   0.375000000000000   1.0000000
N2   N   0.556852732584727   0.110559817779622   0.375000000000000   1.0000000
N2   N   0.389234494011636   0.611273467040410   0.875000000000000   1.0000000
N2   N   0.890781860827977   0.112057597080728   0.375000000000000   1.0000000
N2   N   0.222548430674094   0.777940882003772   0.875000000000000   1.0000000
N2   N   0.055893808550247   0.277941942232032   0.875000000000000   1.0000000
N2   N   0.389248339609550   0.277969871983519   0.875000000000000   1.0000000
N2   N   0.555892970873347   0.777945737069317   0.875000000000000   1.0000000
N2   N   0.889220118613527   0.777950041086456   0.875000000000000   1.0000000
N2   N   0.722560073545210   0.277943018865347   0.875000000000000   1.0000000
N2   N   0.055411094710047   0.777488235684393   0.375000000000000   1.0000000
N2   N   0.389351993581938   0.779283462338559   0.375000000000000   1.0000000
N2   N   0.225192203962916   0.279262768648205   0.375000000000000   1.0000000
N2   N   0.723640286363703   0.779100185014354   0.375000000000000   1.0000000
N2   N   0.556108783480102   0.276215465119475   0.375000000000000   1.0000000
N2   N   0.890458355722450   0.278301770450934   0.375000000000000   1.0000000
N2   N   0.055885882076943   0.444600398912915   0.875000000000000   1.0000000
N2   N   0.222553248657868   0.944619348800333   0.875000000000000   1.0000000
N2   N   0.555888640716233   0.944610987024735   0.875000000000000   1.0000000
N2   N   0.389248339609547   0.444611800959391   0.875000000000000   1.0000000
N2   N   0.889225670853663   0.944618625098738   0.875000000000000   1.0000000
N2   N   0.056041986872718   0.944321495121857   0.375000000000000   1.0000000
N2   N   0.722553255070986   0.444607797589802   0.875000000000000   1.0000000
N2   N   0.389351993581938   0.943401864576727   0.375000000000000   1.0000000
N2   N   0.222476974478570   0.445970130417054   0.375000000000000   1.0000000
N2   N   0.222025618813240   0.612093656002630   0.375000000000000   1.0000000
N2   N   0.723981167551176   0.945611255600614   0.375000000000000   1.0000000
N2   N   0.889461035535485   0.444651063309979   0.375000000000000   1.0000000
N2   N   0.055877553343540   0.611267048049957   0.875000000000000   1.0000000
N2   N   0.222564658205194   0.111292995928455   0.875000000000000   1.0000000
N2   N   0.722553255070986   0.611278790814194   0.875000000000000   1.0000000
N2   N   0.555892970873347   0.111280567137157   0.875000000000000   1.0000000
N2   N   0.889226392719102   0.111279863026211   0.875000000000000   1.0000000
B2   B   0.111819155179326   0.055429062156735   0.375000000000000   1.0000000
B2   B   0.616139465895301   0.565550472075326   0.375000000000000   1.0000000
B2   B   0.445378734014245   0.053166312221528   0.375000000000000   1.0000000
B2   B   0.945046366762136   0.555686826050533   0.375000000000000   1.0000000
B2   B   0.779937578267868   0.056635455800545   0.375000000000000   1.0000000
B2   B   0.111450391050986   0.722391862192073   0.875000000000000   1.0000000
B2   B   0.444765845496294   0.722404193104686   0.875000000000000   1.0000000
B2   B   0.278067143396311   0.222365693627195   0.875000000000000   1.0000000
B2   B   0.778153459310122   0.722455326486455   0.875000000000000   1.0000000
B2   B   0.611460367384199   0.222346653789343   0.875000000000000   1.0000000
B2   B   0.944792778892295   0.222380920576140   0.875000000000000   1.0000000
B2   B   0.278012166977645   0.722946925313613   0.375000000000000   1.0000000
B2   B   0.113678529858241   0.223505931595785   0.375000000000000   1.0000000
B2   B   0.442841228157013   0.215200417538931   0.375000000000000   1.0000000
B2   B   0.613251437947032   0.725971592157065   0.375000000000000   1.0000000
B2   B   0.945046366762136   0.722692874044996   0.375000000000000   1.0000000
B2   B   0.779851014570128   0.222352237961529   0.375000000000000   1.0000000
B2   B   0.111443918139924   0.889071826252687   0.875000000000000   1.0000000
B2   B   0.444771464258745   0.889052398795849   0.875000000000000   1.0000000
B2   B   0.278067143396311   0.389034783102441   0.875000000000000   1.0000000
B2   B   0.611463926899880   0.389024580798705   0.875000000000000   1.0000000
B2   B   0.778142330322638   0.889109568255054   0.875000000000000   1.0000000
B2   B   0.944801843552465   0.389035032210636   0.875000000000000   1.0000000
B2   B   0.111819155179326   0.389723426355888   0.375000000000000   1.0000000
B2   B   0.278012166977645   0.888398574997144   0.375000000000000   1.0000000
B2   B   0.613042251500866   0.890634511669377   0.375000000000000   1.0000000
B2   B   0.945524059216366   0.889734140670269   0.375000000000000   1.0000000
B2   B   0.779567300862935   0.388318520848527   0.375000000000000   1.0000000
B2   B   0.278084812435899   0.555709345298620   0.875000000000000   1.0000000
B2   B   0.111432255372031   0.055730912269094   0.875000000000000   1.0000000
B2   B   0.611463926899880   0.555772679434584   0.875000000000000   1.0000000
B2   B   0.444765845496294   0.055694985724970   0.875000000000000   1.0000000
B2   B   0.944808423864239   0.555720345204528   0.875000000000000   1.0000000
B2   B   0.111212726028771   0.556005151422319   0.375000000000000   1.0000000
B2   B   0.778136065521468   0.055734699427361   0.875000000000000   1.0000000
B2   B   0.277468421309295   0.053720955167435   0.375000000000000   1.0000000
B2   B   0.442841228157013   0.560974143951397   0.375000000000000   1.0000000
B2   B   0.779505917788921   0.556419625561068   0.375000000000000   1.0000000
B2   B   0.613042251500866   0.055741073164864   0.375000000000000   1.0000000
B2   B   0.444753423917917   0.555738622543446   0.875000000000000   1.0000000
B2   B   0.946545223721970   0.056855681637931   0.375000000000000   1.0000000
B2   B   0.278097975661348   0.722382091972757   0.875000000000000   1.0000000
B2   B   0.111426688274545   0.222380010803978   0.875000000000000   1.0000000
B2   B   0.444753423917917   0.222348134707737   0.875000000000000   1.0000000
B2   B   0.611460367384199   0.722447046928222   0.875000000000000   1.0000000
B2   B   0.944808423864239   0.722421411993173   0.875000000000000   1.0000000
B2   B   0.778142330322638   0.222366095400840   0.875000000000000   1.0000000
B2   B   0.111222997860958   0.722278165597213   0.375000000000000   1.0000000
B2   B   0.445378734014245   0.725545755126157   0.375000000000000   1.0000000
B2   B   0.278734320249831   0.221059487118962   0.375000000000000   1.0000000
B2   B   0.779567300862935   0.724582113347807   0.375000000000000   1.0000000
B2   B   0.613251437947032   0.220613179123154   0.375000000000000   1.0000000
B2   B   0.946545223721970   0.223022875417270   0.375000000000000   1.0000000
B2   B   0.111432255372031   0.389034676436339   0.875000000000000   1.0000000
B2   B   0.278097975661348   0.889049217021855   0.875000000000000   1.0000000
B2   B   0.611456429439229   0.889082575433076   0.875000000000000   1.0000000
B2   B   0.444729315120891   0.389031324227056   0.875000000000000   1.0000000
B2   B   0.944801843552465   0.889100144675261   0.875000000000000   1.0000000
B2   B   0.111212726028771   0.888540907939959   0.375000000000000   1.0000000
B2   B   0.778153459310122   0.389031466156863   0.875000000000000   1.0000000
B2   B   0.445623706794095   0.889478520063715   0.375000000000000   1.0000000
B2   B   0.278734320249831   0.391008166464183   0.375000000000000   1.0000000
B2   B   0.277468421309295   0.557080799475278   0.375000000000000   1.0000000
B2   B   0.616139465895301   0.383922327153037   0.375000000000000   1.0000000
B2   B   0.779851014570128   0.890832109941798   0.375000000000000   1.0000000
B2   B   0.945524059216366   0.389123251879345   0.375000000000000   1.0000000
B2   B   0.111443918139924   0.555705425220670   0.875000000000000   1.0000000
B2   B   0.278084812435898   0.055708800470855   0.875000000000000   1.0000000
B2   B   0.778153619334237   0.555743476333870   0.875000000000000   1.0000000
B2   B   0.611456429439229   0.055707187339446   0.875000000000000   1.0000000
B2   B   0.944792778892295   0.055745191649277   0.875000000000000   1.0000000
B2   B   0.055458714018148   0.111062540126595   0.125046203970361   1.0000000
B2   B   0.555338230882518   0.611238569903977   0.125890759294192   1.0000000
B2   B   0.388648500863424   0.110823063689939   0.125205879244341   1.0000000
B2   B   0.889007349328789   0.611170341331086   0.125107200079453   1.0000000
B2   B   0.722111646643675   0.111007419264452   0.125061468873076   1.0000000
B2   B   0.055560428425610   0.777780523658125   0.625327138829526   1.0000000
B2   B   0.388718883156895   0.777752797755122   0.625190986197922   1.0000000
B2   B   0.222040348563634   0.277686840948441   0.624176942728697   1.0000000
B2   B   0.722164028996288   0.777863430831779   0.624779178652220   1.0000000
B2   B   0.555338230882518   0.277432994311742   0.624109240705750   1.0000000
B2   B   0.888837234921006   0.277709329271317   0.624941334627608   1.0000000
B2   B   0.222130996819769   0.777732165076436   0.124618344176595   1.0000000
B2   B   0.055458714018148   0.277729507224782   0.125046203970361   1.0000000
B2   B   0.388509409710182   0.277340736111016   0.127488286612004   1.0000000
B2   B   0.555382043001419   0.777827590257329   0.125036208465051   1.0000000
B2   B   0.888937034559015   0.777848942404632   0.125061579670844   1.0000000
B2   B   0.722164028996288   0.277633931497838   0.125220821347868   1.0000000
B2   B   0.055491077932013   0.944414756218036   0.625113355604136   1.0000000
B2   B   0.388718883156895   0.944299418735162   0.625190986197922   1.0000000
B2   B   0.222041471822885   0.444422865436986   0.624765893945640   1.0000000
B2   B   0.555560245540471   0.444446789436902   0.622804599028810   1.0000000
B2   B   0.722111646643675   0.944437560712837   0.624938531126916   1.0000000
B2   B   0.888937034559015   0.444421425487713   0.624938420329145   1.0000000
B2   B   0.055491077932013   0.444409655047411   0.124886644395894   1.0000000
B2   B   0.222090133952795   0.944328169953625   0.124749379290858   1.0000000
B2   B   0.555399761569975   0.944366547451638   0.124992740856120   1.0000000
B2   B   0.388509409710182   0.444502006932439   0.127488286612004   1.0000000
B2   B   0.888837234921006   0.944461238983180   0.125058665372430   1.0000000
B2   B   0.722330768986655   0.444424853907876   0.125813500426020   1.0000000
B2   B   0.222090133952795   0.611095297332500   0.625250620709121   1.0000000
B2   B   0.055458714018148   0.111062540126588   0.624953796029680   1.0000000
B2   B   0.555338230882518   0.611238569903977   0.624109240705750   1.0000000
B2   B   0.388648500863424   0.110823063689939   0.624794120755650   1.0000000
B2   B   0.889007349328789   0.611170341331086   0.624892799920443   1.0000000
B2   B   0.055560428425610   0.611113238100843   0.124672861170433   1.0000000
B2   B   0.722111646643675   0.111007419264452   0.624938531126916   1.0000000
B2   B   0.222041471822885   0.110951939719237   0.125234106054408   1.0000000
B2   B   0.388648500863424   0.611158770506869   0.125205879244341   1.0000000
B2   B   0.722330768986655   0.611239248412233   0.125813500426019   1.0000000
B2   B   0.555382043001419   0.110887786077388   0.125036208465051   1.0000000
B2   B   0.388648500863424   0.611158770506869   0.624794120755650   1.0000000
B2   B   0.888806610334445   0.111069971833897   0.125048176164922   1.0000000
B2   B   0.222130996819769   0.777732165076436   0.625381655823392   1.0000000
B2   B   0.055458714018148   0.277729507224782   0.624953796029680   1.0000000
B2   B   0.388509409710182   0.277340736111016   0.622511713388083   1.0000000
B2   B   0.555382043001419   0.777827590257329   0.624963791534871   1.0000000
B2   B   0.888937034559015   0.777848942404632   0.624938420329145   1.0000000
B2   B   0.722164028996288   0.277633931497838   0.624779178652220   1.0000000
B2   B   0.055560428425604   0.777780523658125   0.124672861170433   1.0000000
B2   B   0.388718883156895   0.777752797755122   0.124809013801973   1.0000000
B2   B   0.222040348563634   0.277686840948441   0.125823057271305   1.0000000
B2   B   0.722164028996288   0.777863430831779   0.125220821347868   1.0000000
B2   B   0.555338230882518   0.277432994311742   0.125890759294192   1.0000000
B2   B   0.888837234921005   0.277709329271317   0.125058665372429   1.0000000
B2   B   0.055491077932013   0.444409655047411   0.625113355604136   1.0000000
B2   B   0.222090133952795   0.944328169953625   0.625250620709121   1.0000000
B2   B   0.555399761569975   0.944366547451638   0.625007259143964   1.0000000
B2   B   0.388509409710182   0.444502006932439   0.622511713388083   1.0000000
B2   B   0.888837234921006   0.944461238983180   0.624941334627608   1.0000000
B2   B   0.055491077932013   0.944414756218036   0.124886644395894   1.0000000
B2   B   0.722330768986655   0.444424853907876   0.624186499573738   1.0000000
B2   B   0.388718883156895   0.944299418735162   0.124809013801973   1.0000000
B2   B   0.222041471822885   0.444422865436986   0.125234106054408   1.0000000
B2   B   0.222090133952795   0.611095297332500   0.124749379290858   1.0000000
B2   B   0.555560245540475   0.444446789436900   0.127195400971094   1.0000000
B2   B   0.722111646643675   0.944437560712837   0.125061468873076   1.0000000
B2   B   0.888937034559015   0.444421425487713   0.125061579670844   1.0000000
B2   B   0.055560428425610   0.611113238100843   0.625327138829526   1.0000000
B2   B   0.222041471822885   0.110951939719237   0.624765893945640   1.0000000
B2   B   0.722330768986655   0.611239248412233   0.624186499573738   1.0000000
B2   B   0.555382043001419   0.110887786077378   0.624963791534871   1.0000000
B2   B   0.888806610334445   0.111069971833897   0.624951823834915   1.0000000


