data_1
_audit_creation_method   'vasp2cif'
_cell_length_a    17.52789999999977
_cell_length_b    17.52789999999977
_cell_length_c    15.0
_cell_angle_alpha    90.0
_cell_angle_beta    90.0
_cell_angle_gamma    119.99999999999916

_symmetry_space_group_name_H-M    'P 1'
loop_
_atom_site_label
_atom_site_type_symbol
_atom_site_fract_x
_atom_site_fract_y
_atom_site_fract_z
_atom_site_occupancy
Sb2   Sb   0.500730715817220   0.504961849692266   0.089266215513423   1.0000000
B2   B   0.905914788580058   0.952676995555529   0.110664946611360   1.0000000
B2   B   0.903194305238400   0.094021642460300   0.109805257834655   1.0000000
B2   B   0.902506141801199   0.236729301505915   0.111063976009390   1.0000000
B2   B   0.903016555471234   0.379778292530286   0.114059269900155   1.0000000
B2   B   0.905589836054518   0.523192753175095   0.116698932897452   1.0000000
B2   B   0.908668790787001   0.667133383895969   0.115344861207589   1.0000000
B2   B   0.908995480532388   0.811372701283986   0.114669227477456   1.0000000
B2   B   0.048406341413758   0.951308788584606   0.112805328181831   1.0000000
B2   B   0.045742700271017   0.092936114135952   0.112710977778521   1.0000000
B2   B   0.044467656241825   0.235613319892309   0.112575596828392   1.0000000
B2   B   0.044956576497384   0.378870749361410   0.111640660437528   1.0000000
B2   B   0.047087441645214   0.522163012695291   0.112870032502858   1.0000000
B2   B   0.049312739385573   0.665579148145676   0.114474242934861   1.0000000
B2   B   0.049759680652538   0.808851480722526   0.114315316567097   1.0000000
B2   B   0.190955236143926   0.950448055462273   0.111735341931285   1.0000000
B2   B   0.188056015163239   0.091373775462497   0.114637711327236   1.0000000
B2   B   0.185403066934368   0.233114373073377   0.116343341242087   1.0000000
B2   B   0.186021453426451   0.377353836273628   0.110509776324827   1.0000000
B2   B   0.188702908615569   0.521080939989361   0.107909522522443   1.0000000
B2   B   0.190911529076170   0.664530589428637   0.108171284973417   1.0000000
B2   B   0.191670894929907   0.807776713649351   0.109983202583912   1.0000000
B2   B   0.333664518487877   0.950297152155997   0.110823934231256   1.0000000
B2   B   0.332389851895176   0.092559760961307   0.115505218598969   1.0000000
B2   B   0.327083156465733   0.230921992615516   0.116004277743747   1.0000000
B2   B   0.323398341430299   0.372726293528786   0.101881394510977   1.0000000
B2   B   0.330186720902788   0.518594277000963   0.099226817091525   1.0000000
B2   B   0.333028091352378   0.663044400033113   0.106504435170197   1.0000000
B2   B   0.334052117141604   0.807023999199011   0.108060329845216   1.0000000
B2   B   0.476221786977125   0.950741675581110   0.109781476413547   1.0000000
B2   B   0.475579826140385   0.094018314942455   0.114508646761111   1.0000000
B2   B   0.474341576374756   0.236847507126313   0.116235230341927   1.0000000
B2   B   0.464025276502521   0.371147382898095   0.111388453348805   1.0000000
B2   B   0.533362158261261   0.620186680517448   0.156919656466391   1.0000000
B2   B   0.473995809206267   0.663032926520913   0.128067360854307   1.0000000
B2   B   0.476809926787744   0.807231474975584   0.109043916584842   1.0000000
B2   B   0.618727208969520   0.951267696696809   0.108867247374962   1.0000000
B2   B   0.618106017355414   0.094570982214452   0.112494010317225   1.0000000
B2   B   0.617643479438579   0.238270780093335   0.114977728579114   1.0000000
B2   B   0.617300242763551   0.382630127837833   0.106777387109208   1.0000000
B2   B   0.636888914161278   0.536922346324981   0.079578586715713   1.0000000
B2   B   0.632040770073657   0.672885565354209   0.120606062255715   1.0000000
B2   B   0.619845830433049   0.808311458258738   0.110604487825397   1.0000000
B2   B   0.761773777946589   0.952023735431621   0.108018010358493   1.0000000
B2   B   0.760550523338603   0.094419989752061   0.109996964951312   1.0000000
B2   B   0.760177169532726   0.237430090067577   0.113289530475504   1.0000000
B2   B   0.760551664996959   0.380774488865500   0.114188414964231   1.0000000
B2   B   0.765203680008061   0.525040510669363   0.107605009811670   1.0000000
B2   B   0.772091213892311   0.672369853002100   0.104612340567217   1.0000000
B2   B   0.766412077486055   0.812616851546621   0.107443239265642   1.0000000
N2   N   0.954530916089229   0.905710260914848   0.113434855465207   1.0000000
N2   N   0.951543230379003   0.047022741784581   0.110554068363724   1.0000000
N2   N   0.949734361081682   0.188845603844517   0.110594558882359   1.0000000
N2   N   0.949845762521102   0.331699898504117   0.112029811706140   1.0000000
N2   N   0.951908319494694   0.474836656535576   0.115462403050040   1.0000000
N2   N   0.954642342198704   0.618370871156538   0.117596576759188   1.0000000
N2   N   0.955547514163890   0.762311111582189   0.116733117319139   1.0000000
N2   N   0.096292730702664   0.903703019854655   0.112457067426276   1.0000000
N2   N   0.093832949750016   0.045448358921142   0.112548287443782   1.0000000
N2   N   0.091153572447188   0.187033458939989   0.114677937839419   1.0000000
N2   N   0.091101747030915   0.330328524156995   0.112067822772016   1.0000000
N2   N   0.093289402126926   0.473870461348571   0.111023194913675   1.0000000
N2   N   0.095693168424355   0.617341171340671   0.111815642470532   1.0000000
N2   N   0.096794071575336   0.760728819603864   0.112832790766035   1.0000000
N2   N   0.238656177190003   0.902946403305544   0.110027278954148   1.0000000
N2   N   0.237305606360331   0.045131133013547   0.113494523923522   1.0000000
N2   N   0.232935729885870   0.184958325389259   0.117313818326264   1.0000000
N2   N   0.230097446404628   0.326683541687161   0.113991519051757   1.0000000
N2   N   0.234041607152589   0.472199367898450   0.106231734647502   1.0000000
N2   N   0.237180889033689   0.616381604600874   0.105613167672909   1.0000000
N2   N   0.238678980592333   0.759915040698344   0.107951016818662   1.0000000
N2   N   0.381099947311130   0.902757996135291   0.109168486693500   1.0000000
N2   N   0.380512659740957   0.045551028685108   0.113826841581093   1.0000000
N2   N   0.378714117718779   0.187213312738617   0.118110451895357   1.0000000
N2   N   0.370745517952632   0.323514450143481   0.110126449100683   1.0000000
N2   N   0.366424358060113   0.463107963281427   0.083163064241209   1.0000000
N2   N   0.378878850922956   0.614713175307367   0.108329387243287   1.0000000
N2   N   0.380974393810815   0.759292054822449   0.108094383226071   1.0000000
N2   N   0.523704593879683   0.903432202359491   0.108090319263814   1.0000000
N2   N   0.523145512957558   0.046462629482897   0.112492879469661   1.0000000
N2   N   0.522464454389945   0.189545639046478   0.116177197690318   1.0000000
N2   N   0.520677977915426   0.332531955521958   0.112727477250822   1.0000000
N2   N   0.524016229786160   0.760316856852759   0.113703887238047   1.0000000
N2   N   0.666842408113881   0.904494688088779   0.108193408537184   1.0000000
N2   N   0.665681168768884   0.047003919645988   0.110278910524240   1.0000000
N2   N   0.665127593501333   0.190178668999509   0.114293970966010   1.0000000
N2   N   0.664830595295077   0.333982717030061   0.112980935731951   1.0000000
N2   N   0.670362806902225   0.478334872715105   0.096073954104520   1.0000000
N2   N   0.681122371725541   0.628504462411997   0.093775966923294   1.0000000
N2   N   0.673222296557579   0.766775062459547   0.107328893932296   1.0000000
N2   N   0.812010168504138   0.907005673970420   0.108028850933525   1.0000000
N2   N   0.808462147728236   0.047218391630975   0.108679532292908   1.0000000
N2   N   0.807555377711172   0.189632679642580   0.111136397491377   1.0000000
N2   N   0.807711953774456   0.332593685090856   0.114500911727566   1.0000000
N2   N   0.810523115906639   0.475937977425477   0.115259389348866   1.0000000
N2   N   0.815056789042292   0.620404641661326   0.108981896405769   1.0000000
N2   N   0.816076851533363   0.766286364805926   0.111703923170511   1.0000000


