data_1
_audit_creation_method   'vasp2cif'
_cell_length_a    14.93631414619966
_cell_length_b    14.936314146199727
_cell_length_c    13.341276283792837
_cell_angle_alpha    90.0
_cell_angle_beta    90.0
_cell_angle_gamma    119.99999999999984

_symmetry_space_group_name_H-M    'P 1'
loop_
_atom_site_label
_atom_site_type_symbol
_atom_site_fract_x
_atom_site_fract_y
_atom_site_fract_z
_atom_site_occupancy
Si2   Si   0.555555555555557   0.444444444444443   0.375000000000000   1.0000000
N2   N   0.111107502560172   0.055545293544073   0.125120946167816   1.0000000
N2   N   0.611133699859992   0.555600733053313   0.124868329087336   1.0000000
N2   N   0.444436939474649   0.055545481676477   0.125182193595082   1.0000000
N2   N   0.944454518323523   0.555563060525351   0.125182193595082   1.0000000
N2   N   0.777776072924160   0.055554703128748   0.125084565949726   1.0000000
N2   N   0.111116032531362   0.722224682932346   0.624885854243378   1.0000000
N2   N   0.444436939474649   0.722224791131508   0.624817806404918   1.0000000
N2   N   0.277763869625415   0.222207260103077   0.624799792068388   1.0000000
N2   N   0.777792739896923   0.722236130374585   0.624799792068388   1.0000000
N2   N   0.611110057144334   0.222207260103077   0.624799792068388   1.0000000
N2   N   0.944445296871252   0.222223927075840   0.624915434050274   1.0000000
N2   N   0.277775317067655   0.722224682932346   0.125114145756622   1.0000000
N2   N   0.111103294747972   0.222218314040650   0.125110847923100   1.0000000
N2   N   0.444442850186408   0.222219033706151   0.125290996701215   1.0000000
N2   N   0.611110057144334   0.722236130374585   0.125200207931612   1.0000000
N2   N   0.944454518323523   0.722224791131508   0.125182193595082   1.0000000
N2   N   0.777781685959349   0.222218314040650   0.125110847923100   1.0000000
N2   N   0.111115277051891   0.888884722948109   0.624885352224145   1.0000000
N2   N   0.444436112562889   0.888884722948109   0.624885352224145   1.0000000
N2   N   0.277763869625415   0.388889942855667   0.624799792068388   1.0000000
N2   N   0.611133699859992   0.388866300140008   0.625131670912665   1.0000000
N2   N   0.777781685959349   0.888896705252028   0.624889152076900   1.0000000
N2   N   0.944454706455927   0.388895542349428   0.624879053832184   1.0000000
N2   N   0.111107502560172   0.388895542349428   0.125120946167816   1.0000000
N2   N   0.277775317067655   0.888883967468638   0.125114145756622   1.0000000
N2   N   0.611104457650572   0.888892497439828   0.125120946167816   1.0000000
N2   N   0.444399266946688   0.388866300140008   0.124868329087336   1.0000000
N2   N   0.944454706455927   0.888892497439828   0.125120946167816   1.0000000
N2   N   0.777792739896923   0.388889942855667   0.125200207931612   1.0000000
N2   N   0.277775208868492   0.555563060525351   0.624817806404918   1.0000000
N2   N   0.111107502560172   0.055545293544073   0.624879053832184   1.0000000
N2   N   0.611133699859992   0.555600733053313   0.625131670912665   1.0000000
N2   N   0.444436939474649   0.055545481676477   0.624817806404918   1.0000000
N2   N   0.944454518323523   0.555563060525351   0.624817806404918   1.0000000
N2   N   0.111115277051891   0.555563887437111   0.125114647775855   1.0000000
N2   N   0.777776072924160   0.055554703128748   0.624915434050274   1.0000000
N2   N   0.277775208868492   0.055545481676477   0.125182193595082   1.0000000
N2   N   0.444442850186408   0.555557149813592   0.125290996701215   1.0000000
N2   N   0.777780966293849   0.555557149813592   0.125290996701215   1.0000000
N2   N   0.611104457650572   0.055545293544073   0.125120946167816   1.0000000
N2   N   0.444442850186408   0.555557149813592   0.624709003298785   1.0000000
N2   N   0.944445296871252   0.055554703128748   0.125084565949726   1.0000000
N2   N   0.277775317067655   0.722224682932346   0.624885854243378   1.0000000
N2   N   0.111103294747972   0.222218314040650   0.624889152076900   1.0000000
N2   N   0.444442850186408   0.222219033706151   0.624709003298785   1.0000000
N2   N   0.611110057144334   0.722236130374585   0.624799792068388   1.0000000
N2   N   0.944454518323523   0.722224791131508   0.624817806404918   1.0000000
N2   N   0.777781685959349   0.222218314040650   0.624889152076900   1.0000000
N2   N   0.111116032531362   0.722224682932346   0.125114145756622   1.0000000
N2   N   0.444436939474649   0.722224791131508   0.125182193595082   1.0000000
N2   N   0.277763869625415   0.222207260103077   0.125200207931612   1.0000000
N2   N   0.777792739896923   0.722236130374585   0.125200207931612   1.0000000
N2   N   0.611110057144334   0.222207260103077   0.125200207931612   1.0000000
N2   N   0.944445296871252   0.222223927075840   0.125084565949726   1.0000000
N2   N   0.111107502560172   0.388895542349428   0.624879053832184   1.0000000
N2   N   0.277775317067655   0.888883967468638   0.624885854243378   1.0000000
N2   N   0.611104457650572   0.888892497439828   0.624879053832184   1.0000000
N2   N   0.444399266946688   0.388866300140008   0.625131670912665   1.0000000
N2   N   0.944454706455927   0.888892497439828   0.624879053832184   1.0000000
N2   N   0.111115277051891   0.888884722948109   0.125114647775855   1.0000000
N2   N   0.777792739896923   0.388889942855667   0.624799792068388   1.0000000
N2   N   0.444436112562889   0.888884722948109   0.125114647775855   1.0000000
N2   N   0.277763869625415   0.388889942855667   0.125200207931612   1.0000000
N2   N   0.277775208868492   0.555563060525351   0.125182193595082   1.0000000
N2   N   0.611133699859992   0.388866300140008   0.124868329087336   1.0000000
N2   N   0.777781685959349   0.888896705252028   0.125110847923100   1.0000000
N2   N   0.944454706455927   0.388895542349428   0.125120946167816   1.0000000
N2   N   0.111115277051891   0.555563887437111   0.624885352224145   1.0000000
N2   N   0.277775208868492   0.055545481676477   0.624817806404918   1.0000000
N2   N   0.777780966293849   0.555557149813592   0.624709003298785   1.0000000
N2   N   0.611104457650572   0.055545293544073   0.624879053832184   1.0000000
N2   N   0.944445296871252   0.055554703128748   0.624915434050274   1.0000000
N2   N   0.054561011592608   0.110469018619610   0.375000000000000   1.0000000
N2   N   0.555268759957038   0.619372961043206   0.375000000000000   1.0000000
N2   N   0.387707931434938   0.108749196203219   0.375000000000000   1.0000000
N2   N   0.891250803796780   0.612292068565062   0.375000000000000   1.0000000
N2   N   0.722574673693666   0.110469018619610   0.375000000000000   1.0000000
N2   N   0.055551569632979   0.777778442509666   0.875000000000000   1.0000000
N2   N   0.388893539543351   0.777778442509666   0.875000000000000   1.0000000
N2   N   0.222221692847539   0.277777513090437   0.875000000000000   1.0000000
N2   N   0.722222486909563   0.777778307152462   0.875000000000000   1.0000000
N2   N   0.555555370850430   0.277778779885171   0.875000000000000   1.0000000
N2   N   0.888889458018052   0.277776769372120   0.875000000000000   1.0000000
N2   N   0.222222222222221   0.777777777777779   0.375000000000000   1.0000000
N2   N   0.054561011592608   0.277425326306334   0.375000000000000   1.0000000
N2   N   0.380627038956795   0.269229132247168   0.375000000000000   1.0000000
N2   N   0.555186909666504   0.781113475215877   0.375000000000000   1.0000000
N2   N   0.892593232216037   0.781113475215877   0.375000000000000   1.0000000
N2   N   0.723786087729667   0.276213912270333   0.375000000000000   1.0000000
N2   N   0.055553788082761   0.944446211917239   0.875000000000000   1.0000000
N2   N   0.388893539543351   0.944448430367021   0.875000000000000   1.0000000
N2   N   0.222220737925995   0.444441252670975   0.875000000000000   1.0000000
N2   N   0.555555555555557   0.444444444444443   0.875000000000000   1.0000000
N2   N   0.722223230627880   0.944446021979268   0.875000000000000   1.0000000
N2   N   0.888887181411644   0.444441252670975   0.875000000000000   1.0000000
N2   N   0.055717997675670   0.444769328684669   0.375000000000000   1.0000000
N2   N   0.221854645554261   0.943525450276769   0.375000000000000   1.0000000
N2   N   0.555230671315331   0.944282002324330   0.375000000000000   1.0000000
N2   N   0.380627038956794   0.444731240042962   0.375000000000000   1.0000000
N2   N   0.889530981380390   0.945438988407392   0.375000000000000   1.0000000
N2   N   0.730770867752832   0.444731240042962   0.375000000000000   1.0000000
N2   N   0.222221557490334   0.611106460456649   0.875000000000000   1.0000000
N2   N   0.055553978020732   0.111110541981948   0.875000000000000   1.0000000
N2   N   0.555555370850430   0.611109924298594   0.875000000000000   1.0000000
N2   N   0.388891279117968   0.111115891569278   0.875000000000000   1.0000000
N2   N   0.888884108430722   0.611108720882033   0.875000000000000   1.0000000
N2   N   0.056474549723231   0.611662528610827   0.375000000000000   1.0000000
N2   N   0.722223230627880   0.111110541981948   0.875000000000000   1.0000000
N2   N   0.218886524784123   0.107406767783963   0.375000000000000   1.0000000
N2   N   0.387707931434938   0.612292068565062   0.375000000000000   1.0000000
N2   N   0.730770867752832   0.619372961043206   0.375000000000000   1.0000000
N2   N   0.555186909666504   0.107406767783963   0.375000000000000   1.0000000
N2   N   0.388891279117968   0.611108720882033   0.875000000000000   1.0000000
N2   N   0.888888888888886   0.111111111111114   0.375000000000000   1.0000000
N2   N   0.222222222222221   0.777777777777779   0.875000000000000   1.0000000
N2   N   0.055553978020732   0.277776769372120   0.875000000000000   1.0000000
N2   N   0.388890075701406   0.277778779885171   0.875000000000000   1.0000000
N2   N   0.555558747329025   0.777779262074005   0.875000000000000   1.0000000
N2   N   0.888887181411644   0.777779262074005   0.875000000000000   1.0000000
N2   N   0.722222486909563   0.277777513090437   0.875000000000000   1.0000000
N2   N   0.056474549723231   0.778145354445739   0.375000000000000   1.0000000
N2   N   0.388337471389173   0.778145354445739   0.375000000000000   1.0000000
N2   N   0.219094491207330   0.276213912270333   0.375000000000000   1.0000000
N2   N   0.723786087729667   0.780905508792669   0.375000000000000   1.0000000
N2   N   0.555268759957038   0.269229132247168   0.375000000000000   1.0000000
N2   N   0.889530981380390   0.277425326306334   0.375000000000000   1.0000000
N2   N   0.055553788082761   0.444440909498852   0.875000000000000   1.0000000
N2   N   0.222221557490334   0.944448430367021   0.875000000000000   1.0000000
N2   N   0.555559090501148   0.944446211917239   0.875000000000000   1.0000000
N2   N   0.388890075701406   0.444444629149570   0.875000000000000   1.0000000
N2   N   0.888889458018052   0.944446021979268   0.875000000000000   1.0000000
N2   N   0.055717997675670   0.944282002324330   0.375000000000000   1.0000000
N2   N   0.722221220114829   0.444444629149570   0.875000000000000   1.0000000
N2   N   0.388337471389173   0.943525450276769   0.375000000000000   1.0000000
N2   N   0.218886524784123   0.444813090333496   0.375000000000000   1.0000000
N2   N   0.221854645554261   0.611662528610827   0.375000000000000   1.0000000
N2   N   0.722574673693666   0.945438988407392   0.375000000000000   1.0000000
N2   N   0.892593232216037   0.444813090333496   0.375000000000000   1.0000000
N2   N   0.055551569632979   0.611106460456649   0.875000000000000   1.0000000
N2   N   0.222220737925995   0.111112818588356   0.875000000000000   1.0000000
N2   N   0.722221220114829   0.611109924298594   0.875000000000000   1.0000000
N2   N   0.555558747329025   0.111112818588356   0.875000000000000   1.0000000
N2   N   0.888888888888886   0.111111111111114   0.875000000000000   1.0000000
B2   B   0.108911786896800   0.053959592261105   0.375000000000000   1.0000000
B2   B   0.624868170395955   0.583069674125239   0.375000000000000   1.0000000
B2   B   0.443981761006660   0.053549274226513   0.375000000000000   1.0000000
B2   B   0.946450725773487   0.556018238993340   0.375000000000000   1.0000000
B2   B   0.778334063460386   0.055833698396861   0.375000000000000   1.0000000
B2   B   0.111114755021324   0.722224044177326   0.875000000000000   1.0000000
B2   B   0.444446652356298   0.722239498405962   0.875000000000000   1.0000000
B2   B   0.277743698211306   0.222200625183420   0.875000000000000   1.0000000
B2   B   0.777799374816580   0.722256301788694   0.875000000000000   1.0000000
B2   B   0.611123593638786   0.222200625183420   0.875000000000000   1.0000000
B2   B   0.944438791051446   0.222210915436228   0.875000000000000   1.0000000
B2   B   0.277484442847468   0.722515557152532   0.375000000000000   1.0000000
B2   B   0.108557317232180   0.220945325282754   0.375000000000000   1.0000000
B2   B   0.442376442929873   0.218086219193081   0.375000000000000   1.0000000
B2   B   0.612574172830435   0.729793096841513   0.375000000000000   1.0000000
B2   B   0.946450725773487   0.723765820113482   0.375000000000000   1.0000000
B2   B   0.779054674717246   0.220945325282754   0.375000000000000   1.0000000
B2   B   0.111107577965880   0.888892422034120   0.875000000000000   1.0000000
B2   B   0.444451510734913   0.888892422034120   0.875000000000000   1.0000000
B2   B   0.277743698211306   0.388876406361214   0.875000000000000   1.0000000
B2   B   0.611121544603893   0.388878455396107   0.875000000000000   1.0000000
B2   B   0.777792574752218   0.888918482837767   0.875000000000000   1.0000000
B2   B   0.944451117102552   0.388874583415610   0.875000000000000   1.0000000
B2   B   0.108911786896800   0.388285527969023   0.375000000000000   1.0000000
B2   B   0.277484442847468   0.888302219028265   0.375000000000000   1.0000000
B2   B   0.611714472030977   0.891088213103200   0.375000000000000   1.0000000
B2   B   0.416930325874761   0.375131829604045   0.375000000000000   1.0000000
B2   B   0.946040407738894   0.891088213103200   0.375000000000000   1.0000000
B2   B   0.783885590677749   0.387425827169565   0.375000000000000   1.0000000
B2   B   0.277760501594038   0.555553347643702   0.875000000000000   1.0000000
B2   B   0.111090132979729   0.055548882897447   0.875000000000000   1.0000000
B2   B   0.611121544603893   0.555576422541115   0.875000000000000   1.0000000
B2   B   0.444446652356298   0.055540487283671   0.875000000000000   1.0000000
B2   B   0.944459512716329   0.555553347643702   0.875000000000000   1.0000000
B2   B   0.111208033804740   0.555749400942809   0.375000000000000   1.0000000
B2   B   0.777789084563772   0.055561208948554   0.875000000000000   1.0000000
B2   B   0.276234179886517   0.053549274226513   0.375000000000000   1.0000000
B2   B   0.442376442929873   0.557623557070127   0.375000000000000   1.0000000
B2   B   0.781913780806919   0.557623557070127   0.375000000000000   1.0000000
B2   B   0.611714472030977   0.053959592261105   0.375000000000000   1.0000000
B2   B   0.444432656710613   0.555567343289387   0.875000000000000   1.0000000
B2   B   0.944166301603139   0.055833698396861   0.375000000000000   1.0000000
B2   B   0.277775955822674   0.722224044177326   0.875000000000000   1.0000000
B2   B   0.111081517162233   0.222207425247781   0.875000000000000   1.0000000
B2   B   0.444432656710613   0.222198646754562   0.875000000000000   1.0000000
B2   B   0.611123593638786   0.722256301788694   0.875000000000000   1.0000000
B2   B   0.944459512716329   0.722239498405962   0.875000000000000   1.0000000
B2   B   0.777792574752218   0.222207425247781   0.875000000000000   1.0000000
B2   B   0.111697780971735   0.722515557152532   0.375000000000000   1.0000000
B2   B   0.443981761006660   0.723765820113482   0.375000000000000   1.0000000
B2   B   0.270206903158487   0.216114409322251   0.375000000000000   1.0000000
B2   B   0.783885590677749   0.729793096841513   0.375000000000000   1.0000000
B2   B   0.612574172830435   0.216114409322251   0.375000000000000   1.0000000
B2   B   0.944166301603139   0.221665936539614   0.375000000000000   1.0000000
B2   B   0.111090132979729   0.388874583415610   0.875000000000000   1.0000000
B2   B   0.277775955822674   0.888885244978676   0.875000000000000   1.0000000
B2   B   0.611125416584390   0.888909867020271   0.875000000000000   1.0000000
B2   B   0.444423577458885   0.388878455396107   0.875000000000000   1.0000000
B2   B   0.944451117102552   0.888909867020271   0.875000000000000   1.0000000
B2   B   0.111208033804740   0.888791966195260   0.375000000000000   1.0000000
B2   B   0.777799374816580   0.388876406361214   0.875000000000000   1.0000000
B2   B   0.444250599057191   0.888791966195260   0.375000000000000   1.0000000
B2   B   0.270206903158487   0.387425827169565   0.375000000000000   1.0000000
B2   B   0.276234179886517   0.556018238993340   0.375000000000000   1.0000000
B2   B   0.624868170395955   0.375131829604045   0.375000000000000   1.0000000
B2   B   0.779054674717246   0.891442682767820   0.375000000000000   1.0000000
B2   B   0.946040407738894   0.388285527969023   0.375000000000000   1.0000000
B2   B   0.111107577965880   0.555548489265087   0.875000000000000   1.0000000
B2   B   0.277760501594038   0.055540487283671   0.875000000000000   1.0000000
B2   B   0.777801353245437   0.555567343289387   0.875000000000000   1.0000000
B2   B   0.611125416584390   0.055548882897447   0.875000000000000   1.0000000
B2   B   0.944438791051446   0.055561208948554   0.875000000000000   1.0000000
B2   B   0.055514596158040   0.111081711233976   0.124889348374083   1.0000000
B2   B   0.555537906643389   0.611226766091775   0.124572277334013   1.0000000
B2   B   0.388820099709964   0.110973532753271   0.124880864130949   1.0000000
B2   B   0.889026467246729   0.611179900290036   0.124880864130949   1.0000000
B2   B   0.722233781742600   0.111081711233976   0.124889348374083   1.0000000
B2   B   0.055616583171450   0.777802187800146   0.625105691996314   1.0000000
B2   B   0.388852271295360   0.777802187800146   0.625105691996314   1.0000000
B2   B   0.222110276145331   0.277721804739333   0.625185517830898   1.0000000
B2   B   0.722278195260667   0.777889723854669   0.625185517830898   1.0000000
B2   B   0.555537906643389   0.277644473884950   0.625427722665987   1.0000000
B2   B   0.888918288766024   0.277766218257400   0.625110651625917   1.0000000
B2   B   0.222222222222221   0.777777777777779   0.124896628984767   1.0000000
B2   B   0.055514596158040   0.277766218257400   0.124889348374083   1.0000000
B2   B   0.388773233908225   0.277644473884950   0.124572277334013   1.0000000
B2   B   0.555535699796819   0.777858281914742   0.124870768541624   1.0000000
B2   B   0.888989248784588   0.777858281914742   0.124870768541624   1.0000000
B2   B   0.722278195260667   0.277721804739333   0.124814482169102   1.0000000
B2   B   0.055565601023030   0.944434398976969   0.625109385486837   1.0000000
B2   B   0.388852271295360   0.944383416828550   0.625105691996314   1.0000000
B2   B   0.222141718085258   0.444464300203181   0.625129231458376   1.0000000
B2   B   0.555555555555557   0.444444444444443   0.625609584345896   1.0000000
B2   B   0.722233781742600   0.944485403841960   0.625110651625917   1.0000000
B2   B   0.888989248784588   0.444464300203181   0.625129231458376   1.0000000
B2   B   0.055565601023030   0.444464535379389   0.124890614513163   1.0000000
B2   B   0.222197812199854   0.944383416828550   0.124894308003686   1.0000000
B2   B   0.555535464620611   0.944434398976969   0.124890614513163   1.0000000
B2   B   0.388773233908225   0.444462093356611   0.124572277334013   1.0000000
B2   B   0.888918288766024   0.944485403841960   0.124889348374083   1.0000000
B2   B   0.722355526115050   0.444462093356611   0.124572277334013   1.0000000
B2   B   0.222197812199854   0.611147728704640   0.625105691996314   1.0000000
B2   B   0.055514596158040   0.111081711233976   0.625110651625917   1.0000000
B2   B   0.555537906643389   0.611226766091775   0.625427722665987   1.0000000
B2   B   0.388820099709964   0.110973532753271   0.625119135869050   1.0000000
B2   B   0.889026467246729   0.611179900290036   0.625119135869050   1.0000000
B2   B   0.055616583171450   0.611147728704640   0.124894308003686   1.0000000
B2   B   0.722233781742600   0.111081711233976   0.625110651625917   1.0000000
B2   B   0.222141718085258   0.111010751215413   0.124870768541624   1.0000000
B2   B   0.388820099709964   0.611179900290036   0.124880864130949   1.0000000
B2   B   0.722355526115050   0.611226766091775   0.124572277334013   1.0000000
B2   B   0.555535699796819   0.111010751215413   0.124870768541624   1.0000000
B2   B   0.388820099709964   0.611179900290036   0.625119135869050   1.0000000
B2   B   0.888888888888886   0.111111111111114   0.124903966317626   1.0000000
B2   B   0.222222222222221   0.777777777777779   0.625103371015233   1.0000000
B2   B   0.055514596158040   0.277766218257400   0.625110651625917   1.0000000
B2   B   0.388773233908225   0.277644473884950   0.625427722665987   1.0000000
B2   B   0.555535699796819   0.777858281914742   0.625129231458376   1.0000000
B2   B   0.888989248784588   0.777858281914742   0.625129231458376   1.0000000
B2   B   0.722278195260667   0.277721804739333   0.625185517830898   1.0000000
B2   B   0.055616583171450   0.777802187800146   0.124894308003686   1.0000000
B2   B   0.388852271295360   0.777802187800146   0.124894308003686   1.0000000
B2   B   0.222110276145331   0.277721804739333   0.124814482169102   1.0000000
B2   B   0.722278195260667   0.777889723854669   0.124814482169102   1.0000000
B2   B   0.555537906643389   0.277644473884950   0.124572277334013   1.0000000
B2   B   0.888918288766024   0.277766218257400   0.124889348374083   1.0000000
B2   B   0.055565601023030   0.444464535379389   0.625109385486837   1.0000000
B2   B   0.222197812199854   0.944383416828550   0.625105691996314   1.0000000
B2   B   0.555535464620611   0.944434398976969   0.625109385486837   1.0000000
B2   B   0.388773233908225   0.444462093356611   0.625427722665987   1.0000000
B2   B   0.888918288766024   0.944485403841960   0.625110651625917   1.0000000
B2   B   0.055565601023030   0.944434398976969   0.124890614513163   1.0000000
B2   B   0.722355526115050   0.444462093356611   0.625427722665987   1.0000000
B2   B   0.388852271295360   0.944383416828550   0.124894308003686   1.0000000
B2   B   0.222141718085258   0.444464300203181   0.124870768541624   1.0000000
B2   B   0.222197812199854   0.611147728704640   0.124894308003686   1.0000000
B2   B   0.555555555555557   0.444444444444443   0.124390415654103   1.0000000
B2   B   0.722233781742600   0.944485403841960   0.124889348374083   1.0000000
B2   B   0.888989248784588   0.444464300203181   0.124870768541624   1.0000000
B2   B   0.055616583171450   0.611147728704640   0.625105691996314   1.0000000
B2   B   0.222141718085258   0.111010751215413   0.625129231458376   1.0000000
B2   B   0.722355526115050   0.611226766091775   0.625427722665987   1.0000000
B2   B   0.555535699796819   0.111010751215413   0.625129231458376   1.0000000
B2   B   0.888888888888886   0.111111111111114   0.625096033682374   1.0000000


