data_1
_audit_creation_method   'vasp2cif'
_cell_length_a    14.93631414619966
_cell_length_b    14.936314146199727
_cell_length_c    13.341276283792837
_cell_angle_alpha    90.0
_cell_angle_beta    90.0
_cell_angle_gamma    119.99999999999984

_symmetry_space_group_name_H-M    'P 1'
loop_
_atom_site_label
_atom_site_type_symbol
_atom_site_fract_x
_atom_site_fract_y
_atom_site_fract_z
_atom_site_occupancy
N2   N   0.111119923088346   0.055550325867534   0.124960037465233   1.0000000
N2   N   0.611102904148441   0.555539141630212   0.125460076178791   1.0000000
N2   N   0.444434961063082   0.055545323407680   0.125002109788336   1.0000000
N2   N   0.944454676592319   0.555565038936918   0.125002109788336   1.0000000
N2   N   0.777767358603726   0.055550345968531   0.124952930671230   1.0000000
N2   N   0.111115498796810   0.722224416065069   0.625053641678135   1.0000000
N2   N   0.444434961063082   0.722222970988738   0.624997890211664   1.0000000
N2   N   0.277796148983118   0.222222770208516   0.624912646250603   1.0000000
N2   N   0.777777229791484   0.722203851016882   0.624912646250603   1.0000000
N2   N   0.611093287892070   0.222222770208516   0.624912646250603   1.0000000
N2   N   0.944449654031470   0.222232641396274   0.625047069328770   1.0000000
N2   N   0.277775583934930   0.722224416065069   0.124946358321865   1.0000000
N2   N   0.111128515766883   0.222230924550106   0.124990487505266   1.0000000
N2   N   0.444444282765233   0.222221898863802   0.125215756334816   1.0000000
N2   N   0.611093287892070   0.722203851016882   0.125087353749397   1.0000000
N2   N   0.944454676592319   0.722222970988738   0.125002109788336   1.0000000
N2   N   0.777769075449894   0.222230924550106   0.124990487505266   1.0000000
N2   N   0.111116874854899   0.888883125145101   0.625048475158719   1.0000000
N2   N   0.444432916956873   0.888883125145101   0.625048475158719   1.0000000
N2   N   0.277796148983118   0.388906712107930   0.624912646250603   1.0000000
N2   N   0.611102904148441   0.388897095851558   0.624539923821210   1.0000000
N2   N   0.777769075449894   0.888871484233117   0.625009512494733   1.0000000
N2   N   0.944449674132466   0.388902930554141   0.625039962534767   1.0000000
N2   N   0.111119923088346   0.388902930554141   0.124960037465233   1.0000000
N2   N   0.277775583934930   0.888884501203189   0.124946358321865   1.0000000
N2   N   0.611097069445859   0.888880076911654   0.124960037465233   1.0000000
N2   N   0.444460858369788   0.388897095851558   0.125460076178791   1.0000000
N2   N   0.944449674132466   0.888880076911654   0.124960037465233   1.0000000
N2   N   0.777777229791484   0.388906712107930   0.125087353749397   1.0000000
N2   N   0.277777029011262   0.555565038936918   0.624997890211664   1.0000000
N2   N   0.111119923088346   0.055550325867534   0.625039962534767   1.0000000
N2   N   0.611102904148441   0.555539141630212   0.624539923821210   1.0000000
N2   N   0.444434961063082   0.055545323407680   0.624997890211664   1.0000000
N2   N   0.944454676592319   0.555565038936918   0.624997890211664   1.0000000
N2   N   0.111116874854899   0.555567083043127   0.124951524841281   1.0000000
N2   N   0.777767358603726   0.055550345968531   0.625047069328770   1.0000000
N2   N   0.277777029011262   0.055545323407680   0.125002109788336   1.0000000
N2   N   0.444444282765233   0.555555717234767   0.125215756334816   1.0000000
N2   N   0.777778101136198   0.555555717234767   0.125215756334816   1.0000000
N2   N   0.611097069445859   0.055550325867534   0.124960037465233   1.0000000
N2   N   0.444444282765233   0.555555717234767   0.624784243665184   1.0000000
N2   N   0.944449654031470   0.055550345968531   0.124952930671230   1.0000000
N2   N   0.277775583934930   0.722224416065069   0.625053641678135   1.0000000
N2   N   0.111128515766883   0.222230924550106   0.625009512494733   1.0000000
N2   N   0.444444282765233   0.222221898863802   0.624784243665184   1.0000000
N2   N   0.611093287892070   0.722203851016882   0.624912646250603   1.0000000
N2   N   0.944454676592319   0.722222970988738   0.624997890211664   1.0000000
N2   N   0.777769075449894   0.222230924550106   0.625009512494733   1.0000000
N2   N   0.111115498796810   0.722224416065069   0.124946358321865   1.0000000
N2   N   0.444434961063082   0.722222970988738   0.125002109788336   1.0000000
N2   N   0.277796148983118   0.222222770208516   0.125087353749397   1.0000000
N2   N   0.777777229791484   0.722203851016882   0.125087353749397   1.0000000
N2   N   0.611093287892070   0.222222770208516   0.125087353749397   1.0000000
N2   N   0.944449654031470   0.222232641396274   0.124952930671230   1.0000000
N2   N   0.111119923088346   0.388902930554141   0.625039962534767   1.0000000
N2   N   0.277775583934930   0.888884501203189   0.625053641678135   1.0000000
N2   N   0.611097069445859   0.888880076911654   0.625039962534767   1.0000000
N2   N   0.444460858369788   0.388897095851558   0.624539923821210   1.0000000
N2   N   0.944449674132466   0.888880076911654   0.625039962534767   1.0000000
N2   N   0.111116874854899   0.888883125145101   0.124951524841281   1.0000000
N2   N   0.777777229791484   0.388906712107930   0.624912646250603   1.0000000
N2   N   0.444432916956873   0.888883125145101   0.124951524841281   1.0000000
N2   N   0.277796148983118   0.388906712107930   0.125087353749397   1.0000000
N2   N   0.277777029011262   0.555565038936918   0.125002109788336   1.0000000
N2   N   0.611102904148441   0.388897095851558   0.125460076178791   1.0000000
N2   N   0.777769075449894   0.888871484233117   0.124990487505266   1.0000000
N2   N   0.944449674132466   0.388902930554141   0.124960037465233   1.0000000
N2   N   0.111116874854899   0.555567083043127   0.625048475158719   1.0000000
N2   N   0.277777029011262   0.055545323407680   0.624997890211664   1.0000000
N2   N   0.777778101136198   0.555555717234767   0.624784243665184   1.0000000
N2   N   0.611097069445859   0.055550325867534   0.625039962534767   1.0000000
N2   N   0.944449654031470   0.055550345968531   0.625047069328770   1.0000000
N2   N   0.055794462252111   0.111295285594400   0.375000000000000   1.0000000
N2   N   0.555244932348594   0.608145761172381   0.375000000000000   1.0000000
N2   N   0.389219177896791   0.111771689126925   0.375000000000000   1.0000000
N2   N   0.888228310873075   0.610780822103209   0.375000000000000   1.0000000
N2   N   0.722167490008953   0.111295285594400   0.375000000000000   1.0000000
N2   N   0.055555374579092   0.777778886011180   0.875000000000000   1.0000000
N2   N   0.388890178098752   0.777778886011180   0.875000000000000   1.0000000
N2   N   0.222221305058007   0.277777319195671   0.875000000000000   1.0000000
N2   N   0.722222680804329   0.777778694941993   0.875000000000000   1.0000000
N2   N   0.555557610752135   0.277776439189814   0.875000000000000   1.0000000
N2   N   0.888889385129729   0.277775270861786   0.875000000000000   1.0000000
N2   N   0.222222222222221   0.777777777777779   0.375000000000000   1.0000000
N2   N   0.055794462252111   0.277832509991047   0.375000000000000   1.0000000
N2   N   0.391854238827618   0.280432504509547   0.375000000000000   1.0000000
N2   N   0.555662315742564   0.776863911096330   0.375000000000000   1.0000000
N2   N   0.887868262020430   0.776863911096330   0.375000000000000   1.0000000
N2   N   0.721781530714608   0.278218469285392   0.375000000000000   1.0000000
N2   N   0.055554665339814   0.944445334660185   0.875000000000000   1.0000000
N2   N   0.388890178098752   0.944444625420907   0.875000000000000   1.0000000
N2   N   0.222215056747868   0.444444107766528   0.875000000000000   1.0000000
N2   N   0.555555555555557   0.444444444444443   0.875000000000000   1.0000000
N2   N   0.722224729138214   0.944447447601279   0.875000000000000   1.0000000
N2   N   0.888895717685325   0.444444107766528   0.875000000000000   1.0000000
N2   N   0.055488840736709   0.444311014806747   0.375000000000000   1.0000000
N2   N   0.222315934048203   0.944739464983330   0.375000000000000   1.0000000
N2   N   0.555688985193253   0.944511159263291   0.375000000000000   1.0000000
N2   N   0.391854238827618   0.444755067651407   0.375000000000000   1.0000000
N2   N   0.888704714405600   0.944205537747889   0.375000000000000   1.0000000
N2   N   0.719567495490453   0.444755067651407   0.375000000000000   1.0000000
N2   N   0.222221113988820   0.611109821901248   0.875000000000000   1.0000000
N2   N   0.055552552398721   0.111110614870271   0.875000000000000   1.0000000
N2   N   0.555557610752135   0.611114504895657   0.875000000000000   1.0000000
N2   N   0.388890972862431   0.111115279058205   0.875000000000000   1.0000000
N2   N   0.888884720941795   0.611109027137569   0.875000000000000   1.0000000
N2   N   0.055260535016670   0.610909802398209   0.375000000000000   1.0000000
N2   N   0.722224729138214   0.111110614870271   0.875000000000000   1.0000000
N2   N   0.223136088903671   0.112131737979570   0.375000000000000   1.0000000
N2   N   0.389219177896791   0.610780822103209   0.375000000000000   1.0000000
N2   N   0.719567495490453   0.608145761172381   0.375000000000000   1.0000000
N2   N   0.555662315742564   0.112131737979570   0.375000000000000   1.0000000
N2   N   0.388890972862431   0.611109027137569   0.875000000000000   1.0000000
N2   N   0.888888888888886   0.111111111111114   0.375000000000000   1.0000000
N2   N   0.222222222222221   0.777777777777779   0.875000000000000   1.0000000
N2   N   0.055552552398721   0.277775270861786   0.875000000000000   1.0000000
N2   N   0.388885495104344   0.277776439189814   0.875000000000000   1.0000000
N2   N   0.555555892233472   0.777784943252132   0.875000000000000   1.0000000
N2   N   0.888895717685325   0.777784943252132   0.875000000000000   1.0000000
N2   N   0.722222680804329   0.277777319195671   0.875000000000000   1.0000000
N2   N   0.055260535016670   0.777684065951797   0.375000000000000   1.0000000
N2   N   0.389090197601792   0.777684065951797   0.375000000000000   1.0000000
N2   N   0.223103605237448   0.278218469285392   0.375000000000000   1.0000000
N2   N   0.721781530714608   0.776896394762552   0.375000000000000   1.0000000
N2   N   0.555244932348594   0.280432504509547   0.375000000000000   1.0000000
N2   N   0.888704714405600   0.277832509991047   0.375000000000000   1.0000000
N2   N   0.055554665339814   0.444442664012958   0.875000000000000   1.0000000
N2   N   0.222221113988820   0.944444625420907   0.875000000000000   1.0000000
N2   N   0.555557335987042   0.944445334660185   0.875000000000000   1.0000000
N2   N   0.388885495104344   0.444442389247865   0.875000000000000   1.0000000
N2   N   0.888889385129729   0.944447447601279   0.875000000000000   1.0000000
N2   N   0.055488840736709   0.944511159263291   0.375000000000000   1.0000000
N2   N   0.722223560810186   0.444442389247865   0.875000000000000   1.0000000
N2   N   0.389090197601792   0.944739464983330   0.375000000000000   1.0000000
N2   N   0.223136088903671   0.444337684257436   0.375000000000000   1.0000000
N2   N   0.222315934048203   0.610909802398209   0.375000000000000   1.0000000
N2   N   0.722167490008953   0.944205537747889   0.375000000000000   1.0000000
N2   N   0.887868262020430   0.444337684257436   0.375000000000000   1.0000000
N2   N   0.055555374579092   0.611109821901248   0.875000000000000   1.0000000
N2   N   0.222215056747868   0.111104282314675   0.875000000000000   1.0000000
N2   N   0.722223560810186   0.611114504895657   0.875000000000000   1.0000000
N2   N   0.555555892233472   0.111104282314675   0.875000000000000   1.0000000
N2   N   0.888888888888886   0.111111111111114   0.875000000000000   1.0000000
B2   B   0.111300044461332   0.055825407408255   0.375000000000000   1.0000000
B2   B   0.610620335799324   0.554574004931976   0.375000000000000   1.0000000
B2   B   0.444587089057043   0.055641370381391   0.375000000000000   1.0000000
B2   B   0.944358629618609   0.555412910942957   0.375000000000000   1.0000000
B2   B   0.777789174805548   0.055561254069441   0.375000000000000   1.0000000
B2   B   0.111312655069907   0.722322994201618   0.875000000000000   1.0000000
B2   B   0.444348709201526   0.722047432143629   0.875000000000000   1.0000000
B2   B   0.277652814692477   0.222297239025989   0.875000000000000   1.0000000
B2   B   0.777702760974011   0.722347185307523   0.875000000000000   1.0000000
B2   B   0.611311091000183   0.222297239025989   0.875000000000000   1.0000000
B2   B   0.944342740149359   0.222018813632053   0.875000000000000   1.0000000
B2   B   0.277815839289084   0.722184160710916   0.375000000000000   1.0000000
B2   B   0.111135179264717   0.222234256299023   0.375000000000000   1.0000000
B2   B   0.444174105819796   0.221681544972927   0.375000000000000   1.0000000
B2   B   0.611363102475844   0.721701477972537   0.375000000000000   1.0000000
B2   B   0.944358629618609   0.722279052008988   0.375000000000000   1.0000000
B2   B   0.777765743700977   0.222234256299023   0.375000000000000   1.0000000
B2   B   0.111012739597187   0.888987260402813   0.875000000000000   1.0000000
B2   B   0.444641187472298   0.888987260402813   0.875000000000000   1.0000000
B2   B   0.277652814692477   0.388688908999817   0.875000000000000   1.0000000
B2   B   0.611032146540615   0.388967853459385   0.875000000000000   1.0000000
B2   B   0.777694273697935   0.888721880729199   0.875000000000000   1.0000000
B2   B   0.944648326926381   0.388980201313513   0.875000000000000   1.0000000
B2   B   0.111300044461332   0.388807970386406   0.375000000000000   1.0000000
B2   B   0.277815839289084   0.888965011911496   0.375000000000000   1.0000000
B2   B   0.611192029613594   0.888699955538668   0.375000000000000   1.0000000
B2   B   0.445425995068024   0.389379664200676   0.375000000000000   1.0000000
B2   B   0.944174592591745   0.888699955538668   0.375000000000000   1.0000000
B2   B   0.777005042163364   0.388636897524156   0.375000000000000   1.0000000
B2   B   0.277952567856371   0.555651290798474   0.875000000000000   1.0000000
B2   B   0.110998541053804   0.055351673073620   0.875000000000000   1.0000000
B2   B   0.611032146540615   0.555397626414559   0.875000000000000   1.0000000
B2   B   0.444348709201526   0.055634610391233   0.875000000000000   1.0000000
B2   B   0.944365389608767   0.555651290798474   0.875000000000000   1.0000000
B2   B   0.111036719441553   0.555406772216434   0.375000000000000   1.0000000
B2   B   0.777981186367947   0.055657259850641   0.875000000000000   1.0000000
B2   B   0.277720947991012   0.055641370381391   0.375000000000000   1.0000000
B2   B   0.444174105819796   0.555825894180205   0.375000000000000   1.0000000
B2   B   0.778318455027073   0.555825894180205   0.375000000000000   1.0000000
B2   B   0.611192029613594   0.055825407408255   0.375000000000000   1.0000000
B2   B   0.444336843956578   0.555663156043423   0.875000000000000   1.0000000
B2   B   0.944438745930559   0.055561254069441   0.375000000000000   1.0000000
B2   B   0.277677005798382   0.722322994201618   0.875000000000000   1.0000000
B2   B   0.111278119270801   0.222305726302065   0.875000000000000   1.0000000
B2   B   0.444336843956578   0.222007021246491   0.875000000000000   1.0000000
B2   B   0.611311091000183   0.722347185307523   0.875000000000000   1.0000000
B2   B   0.944365389608767   0.722047432143629   0.875000000000000   1.0000000
B2   B   0.777694273697935   0.222305726302065   0.875000000000000   1.0000000
B2   B   0.111034988088503   0.722184160710916   0.375000000000000   1.0000000
B2   B   0.444587089057043   0.722279052008988   0.375000000000000   1.0000000
B2   B   0.278298522027463   0.222994957836636   0.375000000000000   1.0000000
B2   B   0.777005042163364   0.721701477972537   0.375000000000000   1.0000000
B2   B   0.611363102475844   0.222994957836636   0.375000000000000   1.0000000
B2   B   0.944438745930559   0.222210825194453   0.375000000000000   1.0000000
B2   B   0.110998541053804   0.388980201313513   0.875000000000000   1.0000000
B2   B   0.277677005798382   0.888687344930093   0.875000000000000   1.0000000
B2   B   0.611019798686487   0.889001458946196   0.875000000000000   1.0000000
B2   B   0.444602373585441   0.388967853459385   0.875000000000000   1.0000000
B2   B   0.944648326926381   0.889001458946196   0.875000000000000   1.0000000
B2   B   0.111036719441553   0.888963280558447   0.375000000000000   1.0000000
B2   B   0.777702760974011   0.388688908999817   0.875000000000000   1.0000000
B2   B   0.444593227783566   0.888963280558447   0.375000000000000   1.0000000
B2   B   0.278298522027463   0.388636897524156   0.375000000000000   1.0000000
B2   B   0.277720947991012   0.555412910942957   0.375000000000000   1.0000000
B2   B   0.610620335799324   0.389379664200676   0.375000000000000   1.0000000
B2   B   0.777765743700977   0.888864820735283   0.375000000000000   1.0000000
B2   B   0.944174592591745   0.388807970386406   0.375000000000000   1.0000000
B2   B   0.111012739597187   0.555358812527702   0.875000000000000   1.0000000
B2   B   0.277952567856371   0.055634610391233   0.875000000000000   1.0000000
B2   B   0.777992978753509   0.555663156043423   0.875000000000000   1.0000000
B2   B   0.611019798686487   0.055351673073620   0.875000000000000   1.0000000
B2   B   0.944342740149359   0.055657259850641   0.875000000000000   1.0000000
B2   B   0.055534243594260   0.111084214253969   0.125091368447489   1.0000000
B2   B   0.555526926043003   0.611208623369976   0.125034300644681   1.0000000
B2   B   0.388815694693267   0.110964722719877   0.125012696874473   1.0000000
B2   B   0.889035277280123   0.611184305306733   0.125012696874473   1.0000000
B2   B   0.722216637326373   0.111084214253969   0.125091368447489   1.0000000
B2   B   0.055622209799520   0.777801086585863   0.624904295289362   1.0000000
B2   B   0.388845543453007   0.777801086585863   0.624904295289362   1.0000000
B2   B   0.222148000809410   0.277740667071373   0.624998581503236   1.0000000
B2   B   0.722259332928627   0.777851999190590   0.624998581503236   1.0000000
B2   B   0.555526926043003   0.277651636006364   0.624965699355319   1.0000000
B2   B   0.888915785746031   0.277783362673627   0.624908631552511   1.0000000
B2   B   0.222222222222221   0.777777777777779   0.125046115234688   1.0000000
B2   B   0.055534243594260   0.277783362673627   0.125091368447489   1.0000000
B2   B   0.388791376630024   0.277651636006364   0.125034300644681   1.0000000
B2   B   0.555522947525913   0.777840966714816   0.125068555825632   1.0000000
B2   B   0.888984685855568   0.777840966714816   0.125068555825632   1.0000000
B2   B   0.722259332928627   0.277740667071373   0.125001418496764   1.0000000
B2   B   0.055572024150083   0.944427975849917   0.624965045347108   1.0000000
B2   B   0.388845543453007   0.944377790200480   0.624904295289362   1.0000000
B2   B   0.222159033285184   0.444477052474088   0.624931444174368   1.0000000
B2   B   0.555555555555557   0.444444444444443   0.625088770476733   1.0000000
B2   B   0.722216637326373   0.944465756405740   0.624908631552511   1.0000000
B2   B   0.888984685855568   0.444477052474088   0.624931444174368   1.0000000
B2   B   0.055572024150083   0.444477381633495   0.125034954652891   1.0000000
B2   B   0.222198913414137   0.944377790200480   0.125095704710638   1.0000000
B2   B   0.555522618366504   0.944427975849917   0.125034954652891   1.0000000
B2   B   0.388791376630024   0.444473073956996   0.125034300644681   1.0000000
B2   B   0.888915785746031   0.944465756405740   0.125091368447489   1.0000000
B2   B   0.722348363993636   0.444473073956996   0.125034300644681   1.0000000
B2   B   0.222198913414137   0.611154456546993   0.624904295289362   1.0000000
B2   B   0.055534243594260   0.111084214253969   0.624908631552511   1.0000000
B2   B   0.555526926043003   0.611208623369976   0.624965699355319   1.0000000
B2   B   0.388815694693267   0.110964722719877   0.624987303125527   1.0000000
B2   B   0.889035277280123   0.611184305306733   0.624987303125527   1.0000000
B2   B   0.055622209799520   0.611154456546993   0.125095704710638   1.0000000
B2   B   0.722216637326373   0.111084214253969   0.624908631552511   1.0000000
B2   B   0.222159033285184   0.111015314144432   0.125068555825632   1.0000000
B2   B   0.388815694693267   0.611184305306733   0.125012696874473   1.0000000
B2   B   0.722348363993636   0.611208623369976   0.125034300644681   1.0000000
B2   B   0.555522947525913   0.111015314144432   0.125068555825632   1.0000000
B2   B   0.388815694693267   0.611184305306733   0.624987303125527   1.0000000
B2   B   0.888888888888886   0.111111111111114   0.125044074944590   1.0000000
B2   B   0.222222222222221   0.777777777777779   0.624953884765312   1.0000000
B2   B   0.055534243594260   0.277783362673627   0.624908631552511   1.0000000
B2   B   0.388791376630024   0.277651636006364   0.624965699355319   1.0000000
B2   B   0.555522947525913   0.777840966714816   0.624931444174368   1.0000000
B2   B   0.888984685855568   0.777840966714816   0.624931444174368   1.0000000
B2   B   0.722259332928627   0.277740667071373   0.624998581503236   1.0000000
B2   B   0.055622209799520   0.777801086585863   0.125095704710638   1.0000000
B2   B   0.388845543453007   0.777801086585863   0.125095704710638   1.0000000
B2   B   0.222148000809410   0.277740667071373   0.125001418496764   1.0000000
B2   B   0.722259332928627   0.777851999190590   0.125001418496764   1.0000000
B2   B   0.555526926043003   0.277651636006364   0.125034300644681   1.0000000
B2   B   0.888915785746031   0.277783362673627   0.125091368447489   1.0000000
B2   B   0.055572024150083   0.444477381633495   0.624965045347108   1.0000000
B2   B   0.222198913414137   0.944377790200480   0.624904295289362   1.0000000
B2   B   0.555522618366504   0.944427975849917   0.624965045347108   1.0000000
B2   B   0.388791376630024   0.444473073956996   0.624965699355319   1.0000000
B2   B   0.888915785746031   0.944465756405740   0.624908631552511   1.0000000
B2   B   0.055572024150083   0.944427975849917   0.125034954652891   1.0000000
B2   B   0.722348363993636   0.444473073956996   0.624965699355319   1.0000000
B2   B   0.388845543453007   0.944377790200480   0.125095704710638   1.0000000
B2   B   0.222159033285184   0.444477052474088   0.125068555825632   1.0000000
B2   B   0.222198913414137   0.611154456546993   0.125095704710638   1.0000000
B2   B   0.555555555555557   0.444444444444443   0.124911229523267   1.0000000
B2   B   0.722216637326373   0.944465756405740   0.125091368447489   1.0000000
B2   B   0.888984685855568   0.444477052474088   0.125068555825632   1.0000000
B2   B   0.055622209799520   0.611154456546993   0.624904295289362   1.0000000
B2   B   0.222159033285184   0.111015314144432   0.624931444174368   1.0000000
B2   B   0.722348363993636   0.611208623369976   0.624965699355319   1.0000000
B2   B   0.555522947525913   0.111015314144432   0.624931444174368   1.0000000
B2   B   0.888888888888886   0.111111111111114   0.624955925055410   1.0000000


