data_1
_audit_creation_method   'vasp2cif'
_cell_length_a    17.52789999999977
_cell_length_b    17.52789999999977
_cell_length_c    15.0
_cell_angle_alpha    90.0
_cell_angle_beta    90.0
_cell_angle_gamma    119.99999999999916

_symmetry_space_group_name_H-M    'P 1'
loop_
_atom_site_label
_atom_site_type_symbol
_atom_site_fract_x
_atom_site_fract_y
_atom_site_fract_z
_atom_site_occupancy
B2   B   0.905030901719344   0.951154320771766   0.121326229420296   1.0000000
B2   B   0.903220711211039   0.092929562105071   0.120461878364331   1.0000000
B2   B   0.902942219256133   0.235786733466594   0.119177798799433   1.0000000
B2   B   0.903594563978156   0.379035889089332   0.119374592223785   1.0000000
B2   B   0.905639052328630   0.522628436773545   0.120524165477639   1.0000000
B2   B   0.908116211212821   0.666485553939291   0.119591449564356   1.0000000
B2   B   0.907838061380609   0.809944603685233   0.118975317912555   1.0000000
B2   B   0.048105346428513   0.951051817784610   0.122668439704006   1.0000000
B2   B   0.046055539829590   0.092653539644733   0.120332035750274   1.0000000
B2   B   0.045105826464521   0.235367896042020   0.117569509475061   1.0000000
B2   B   0.045241055483231   0.378600299003529   0.116343906508483   1.0000000
B2   B   0.046674214324659   0.522064833781178   0.119171468172660   1.0000000
B2   B   0.048533517855197   0.665496923518336   0.122661225002912   1.0000000
B2   B   0.049058414138828   0.808650721094514   0.123263117193527   1.0000000
B2   B   0.190540746839584   0.950590467134091   0.120090430154067   1.0000000
B2   B   0.189026823193895   0.092302173226277   0.117581445558312   1.0000000
B2   B   0.186694665224913   0.233930626471014   0.114066633252242   1.0000000
B2   B   0.186575148079652   0.378015697239038   0.110273937699384   1.0000000
B2   B   0.187591622880625   0.521623165543563   0.110137083550952   1.0000000
B2   B   0.189629333559862   0.665032655744509   0.116832641153600   1.0000000
B2   B   0.190739418605141   0.808028847650909   0.120269881067081   1.0000000
B2   B   0.332961962504968   0.950386369837561   0.117761203840824   1.0000000
B2   B   0.332350568865983   0.092517949413886   0.116150449762653   1.0000000
B2   B   0.329661635113585   0.232971977193093   0.113355126595895   1.0000000
B2   B   0.325994852155788   0.376198494051643   0.109777204318864   1.0000000
B2   B   0.328449009914759   0.521051092087186   0.097788753153670   1.0000000
B2   B   0.330438261538341   0.664790548892171   0.102783272686977   1.0000000
B2   B   0.332704704234440   0.807764078346238   0.114285544984215   1.0000000
B2   B   0.475459565635167   0.950391068378751   0.115799760515870   1.0000000
B2   B   0.475379190541090   0.092852296419863   0.116329000346084   1.0000000
B2   B   0.474749803925195   0.234469830228261   0.113678759071546   1.0000000
B2   B   0.468661771153856   0.368334737270194   0.112476567952688   1.0000000
B2   B   0.535522881114154   0.638916913826985   0.024487930594116   1.0000000
B2   B   0.467961120816305   0.668157669152398   0.065272347794308   1.0000000
B2   B   0.475059453423374   0.808128831157930   0.104796156859830   1.0000000
B2   B   0.618091648446400   0.950109521073863   0.112595265367301   1.0000000
B2   B   0.618063478163772   0.093173180710843   0.117034015391016   1.0000000
B2   B   0.618250952515278   0.236354510758075   0.115582585712352   1.0000000
B2   B   0.619416819638005   0.380090663503245   0.108447836062460   1.0000000
B2   B   0.637694898713530   0.533531319362377   0.080520698278360   1.0000000
B2   B   0.637170373202685   0.675980556691447   0.051857090052332   1.0000000
B2   B   0.619017512491860   0.808149215744048   0.093249176932909   1.0000000
B2   B   0.761128573518309   0.950375202488081   0.114638636004262   1.0000000
B2   B   0.760545741734117   0.093033248485120   0.117994829915671   1.0000000
B2   B   0.760712942162013   0.236113607079958   0.118161481006562   1.0000000
B2   B   0.761758812964812   0.379514792318586   0.116044264477237   1.0000000
B2   B   0.766005228408024   0.524035479108509   0.108271297842338   1.0000000
B2   B   0.772218820399233   0.670415851852718   0.095040106409667   1.0000000
B2   B   0.765315636844738   0.810417665315579   0.104960029226116   1.0000000
In2   In   0.499874835965150   0.513935892204206   0.099368030359322   1.0000000
N2   N   0.953322295182224   0.904131619417140   0.123078633526026   1.0000000
N2   N   0.951301659480871   0.045694219426621   0.121969177004040   1.0000000
N2   N   0.950277054005185   0.187975532335296   0.119737585567176   1.0000000
N2   N   0.950331458630906   0.330976597193180   0.118784172846776   1.0000000
N2   N   0.951591626885589   0.474241236459786   0.120730988000523   1.0000000
N2   N   0.953510473515550   0.617682494650248   0.122857583756822   1.0000000
N2   N   0.954125536521236   0.761239738665066   0.122229231015108   1.0000000
N2   N   0.095731575369810   0.903529736725084   0.122546396504700   1.0000000
N2   N   0.094481880649620   0.045724524921736   0.120643323323335   1.0000000
N2   N   0.092545480346378   0.187375232674547   0.117456077661358   1.0000000
N2   N   0.092170276624207   0.330474779171236   0.114899811774973   1.0000000
N2   N   0.093006035288839   0.473800890074165   0.115428533718668   1.0000000
N2   N   0.094785608753685   0.617234673196512   0.120390936263566   1.0000000
N2   N   0.095824211409577   0.760555387001625   0.122820545481864   1.0000000
N2   N   0.238100398187002   0.903170362273816   0.119467402236987   1.0000000
N2   N   0.237610847193155   0.045733705445948   0.117754619370813   1.0000000
N2   N   0.235671113569171   0.187271267070205   0.114379971712475   1.0000000
N2   N   0.232687863259319   0.328471049668716   0.110365639671634   1.0000000
N2   N   0.233936095615562   0.473276527335671   0.105302963019485   1.0000000
N2   N   0.236036189852381   0.616904497397191   0.111131772531711   1.0000000
N2   N   0.237755875335698   0.760204735832298   0.117566488620278   1.0000000
N2   N   0.380504922151927   0.902951038679455   0.116574240427964   1.0000000
N2   N   0.380465450101614   0.045781589942023   0.116798734212548   1.0000000
N2   N   0.379888662572365   0.188284001543977   0.114159533084193   1.0000000
N2   N   0.376702509895108   0.329215108542965   0.112084804572856   1.0000000
N2   N   0.370228769388266   0.469240940865795   0.105977812272148   1.0000000
N2   N   0.376239634587252   0.616781628374368   0.087236542576294   1.0000000
N2   N   0.379837564254710   0.760034232816834   0.107274173836479   1.0000000
N2   N   0.523030105868417   0.902822760271166   0.112603098604683   1.0000000
N2   N   0.523042024009506   0.045715689252857   0.116933568349218   1.0000000
N2   N   0.523047919749756   0.188631316738767   0.115018666063281   1.0000000
N2   N   0.523253847458893   0.331708001675383   0.111350103572603   1.0000000
N2   N   0.522653729457220   0.761059443068944   0.089933763087647   1.0000000
N2   N   0.665778741948599   0.902123215524057   0.108168456021465   1.0000000
N2   N   0.665457449282942   0.045359984593814   0.116534944990430   1.0000000
N2   N   0.665479267186593   0.188838855517897   0.117264302197912   1.0000000
N2   N   0.665853602653296   0.332593573505856   0.113639065556873   1.0000000
N2   N   0.669086197209923   0.476483828595688   0.099556845207468   1.0000000
N2   N   0.681337711134691   0.624775237009100   0.066782123442409   1.0000000
N2   N   0.671540278093673   0.763657614781717   0.086195986107240   1.0000000
N2   N   0.810010807557834   0.903766483283879   0.116650243492967   1.0000000
N2   N   0.808056979147229   0.045269899995300   0.118767023257706   1.0000000
N2   N   0.807832479506731   0.188279234406394   0.118887216849233   1.0000000
N2   N   0.808211863273595   0.331525408337833   0.118438865396602   1.0000000
N2   N   0.810133067675008   0.474871571743555   0.116406667638391   1.0000000
N2   N   0.813513608290546   0.618868816305539   0.109618720836524   1.0000000
N2   N   0.813708168885509   0.763189967215929   0.107346190891077   1.0000000


