data_1
_audit_creation_method   'vasp2cif'
_cell_length_a    14.93631414619966
_cell_length_b    14.936314146199727
_cell_length_c    13.341276283792837
_cell_angle_alpha    90.0
_cell_angle_beta    90.0
_cell_angle_gamma    119.99999999999984

_symmetry_space_group_name_H-M    'P 1'
loop_
_atom_site_label
_atom_site_type_symbol
_atom_site_fract_x
_atom_site_fract_y
_atom_site_fract_z
_atom_site_occupancy
N2   N   0.440327548539249   0.386830440936289   0.375000000000000   1.0000000
N2   N   0.111091172023628   0.055544300309368   0.125158225000357   1.0000000
N2   N   0.611096638084830   0.555519342765616   0.125885554496739   1.0000000
N2   N   0.444418689227796   0.055554855533114   0.125207548895939   1.0000000
N2   N   0.944456809475861   0.555563990865830   0.125159303286409   1.0000000
N2   N   0.777731720750083   0.055532527041709   0.125140922306891   1.0000000
N2   N   0.111115195689556   0.722224264511443   0.624876836981288   1.0000000
N2   N   0.444418689227796   0.722197167028018   0.624792451104061   1.0000000
N2   N   0.277750927904849   0.222218756576671   0.624719549899938   1.0000000
N2   N   0.777769861205495   0.722199981014757   0.624715167030462   1.0000000
N2   N   0.611078107486104   0.222232443099624   0.624648454379196   1.0000000
N2   N   0.944408176429934   0.222210337507639   0.624886514262366   1.0000000
N2   N   0.277767247770604   0.722215130319536   0.125118477013533   1.0000000
N2   N   0.111069684056593   0.222201508694961   0.125136198872063   1.0000000
N2   N   0.444434470700039   0.222239293446879   0.125406026502403   1.0000000
N2   N   0.611078107486104   0.722178997719808   0.125351545620804   1.0000000
N2   N   0.944456809475861   0.722226151943368   0.125159303286409   1.0000000
N2   N   0.777743572790462   0.222221726161251   0.125159347680161   1.0000000
N2   N   0.111110137055183   0.888888178197820   0.624876076234945   1.0000000
N2   N   0.444415328231395   0.888874330782362   0.624862373413086   1.0000000
N2   N   0.277750927904849   0.388865504661507   0.624719549899938   1.0000000
N2   N   0.611096638084830   0.388910628652543   0.624114445503261   1.0000000
N2   N   0.777743572790462   0.888855179962539   0.624840652319838   1.0000000
N2   N   0.944435039866197   0.388892168354160   0.624879160073120   1.0000000
N2   N   0.111091172023628   0.388880205047589   0.125158225000357   1.0000000
N2   N   0.277767247770604   0.888885450784398   0.125118477013533   1.0000000
N2   N   0.611067772463861   0.888858675259975   0.125155218131698   1.0000000
N2   N   0.444394153471957   0.388863743402643   0.124677904795356   1.0000000
N2   N   0.944435039866197   0.888876204845365   0.125120839926880   1.0000000
N2   N   0.777769861205495   0.388903213524066   0.125284832969538   1.0000000
N2   N   0.277766434369950   0.555542534242078   0.624809706619212   1.0000000
N2   N   0.111091172023628   0.055544300309368   0.624841774999644   1.0000000
N2   N   0.611096638084830   0.555519342765616   0.624114445503261   1.0000000
N2   N   0.444418689227796   0.055554855533114   0.624792451104061   1.0000000
N2   N   0.944456809475861   0.555563990865830   0.624840696713590   1.0000000
N2   N   0.111110137055183   0.555555292190692   0.125123923765055   1.0000000
N2   N   0.777731720750083   0.055532527041709   0.624859077693109   1.0000000
N2   N   0.277766434369950   0.055557233461207   0.125190293380788   1.0000000
N2   N   0.444434470700039   0.555528510586496   0.125406026502403   1.0000000
N2   N   0.777790813421548   0.555562073377442   0.125439293247809   1.0000000
N2   N   0.611067772463861   0.055542430537214   0.125155218131698   1.0000000
N2   N   0.444434470700039   0.555528510586496   0.624593973497597   1.0000000
N2   N   0.944408176429934   0.055531172255630   0.125113485737634   1.0000000
N2   N   0.277767247770604   0.722215130319536   0.624881522986467   1.0000000
N2   N   0.111069684056593   0.222201508694961   0.624863801127936   1.0000000
N2   N   0.444434470700039   0.222239293446879   0.624593973497597   1.0000000
N2   N   0.611078107486104   0.722178997719808   0.624648454379196   1.0000000
N2   N   0.944456809475861   0.722226151943368   0.624840696713590   1.0000000
N2   N   0.777743572790462   0.222221726161251   0.624840652319838   1.0000000
N2   N   0.111115195689556   0.722224264511443   0.125123163018712   1.0000000
N2   N   0.444418689227796   0.722197167028018   0.125207548895939   1.0000000
N2   N   0.277750927904849   0.222218756576671   0.125280450100062   1.0000000
N2   N   0.777769861205495   0.722199981014757   0.125284832969538   1.0000000
N2   N   0.611078107486104   0.222232443099624   0.125351545620804   1.0000000
N2   N   0.944408176429934   0.222210337507639   0.125113485737634   1.0000000
N2   N   0.111091172023628   0.388880205047589   0.624841774999644   1.0000000
N2   N   0.277767247770604   0.888885450784398   0.624881522986467   1.0000000
N2   N   0.611067772463861   0.888858675259975   0.624844781868303   1.0000000
N2   N   0.444394153471957   0.388863743402643   0.625322095204644   1.0000000
N2   N   0.944435039866197   0.888876204845365   0.624879160073120   1.0000000
N2   N   0.111110137055183   0.888888178197820   0.125123923765055   1.0000000
N2   N   0.777769861205495   0.388903213524066   0.624715167030462   1.0000000
N2   N   0.444415328231395   0.888874330782362   0.125137626586914   1.0000000
N2   N   0.277750927904849   0.388865504661507   0.125280450100062   1.0000000
N2   N   0.277766434369950   0.555542534242078   0.125190293380788   1.0000000
N2   N   0.611096638084830   0.388910628652543   0.125885554496739   1.0000000
N2   N   0.777743572790462   0.888855179962539   0.125159347680161   1.0000000
N2   N   0.944435039866197   0.388892168354160   0.125120839926880   1.0000000
N2   N   0.111110137055183   0.555555292190692   0.624876076234945   1.0000000
N2   N   0.277766434369950   0.055557233461207   0.624809706619212   1.0000000
N2   N   0.777790813421548   0.555562073377442   0.624560706752191   1.0000000
N2   N   0.611067772463861   0.055542430537214   0.624844781868303   1.0000000
N2   N   0.944408176429934   0.055531172255630   0.624886514262366   1.0000000
N2   N   0.053393598072728   0.109852975482125   0.375000000000000   1.0000000
N2   N   0.555326814452267   0.603730989304791   0.375000000000000   1.0000000
N2   N   0.389584507053107   0.115494854005465   0.375000000000000   1.0000000
N2   N   0.892046825333605   0.612690079333474   0.375000000000000   1.0000000
N2   N   0.721065398907651   0.111175612483019   0.375000000000000   1.0000000
N2   N   0.055549915496721   0.777776694459119   0.875000000000000   1.0000000
N2   N   0.388892324095867   0.777778344078990   0.875000000000000   1.0000000
N2   N   0.222218863902393   0.277776098617865   0.875000000000000   1.0000000
N2   N   0.722223212139199   0.777778990968366   0.875000000000000   1.0000000
N2   N   0.555556938185158   0.277781081322339   0.875000000000000   1.0000000
N2   N   0.888889646846754   0.277776693447842   0.875000000000000   1.0000000
N2   N   0.223859813078424   0.778596573205880   0.375000000000000   1.0000000
N2   N   0.053393598072728   0.276873955923939   0.375000000000000   1.0000000
N2   N   0.385830275542246   0.281615872924721   0.375000000000000   1.0000000
N2   N   0.555406191255437   0.774798754883550   0.375000000000000   1.0000000
N2   N   0.890022668643698   0.778157206383427   0.375000000000000   1.0000000
N2   N   0.721553519896024   0.279123508401626   0.375000000000000   1.0000000
N2   N   0.055551422799682   0.944444672999780   0.875000000000000   1.0000000
N2   N   0.388892324095867   0.944447313350212   0.875000000000000   1.0000000
N2   N   0.222218158018363   0.444439993364886   0.875000000000000   1.0000000
N2   N   0.555558188777156   0.444445761055242   0.875000000000000   1.0000000
N2   N   0.722223382759320   0.944445804571591   0.875000000000000   1.0000000
N2   N   0.888887637143624   0.444441006630306   0.875000000000000   1.0000000
N2   N   0.055752211179494   0.444278874011305   0.375000000000000   1.0000000
N2   N   0.223498839235722   0.946150101192038   0.375000000000000   1.0000000
N2   N   0.555389753376353   0.944361543354841   0.375000000000000   1.0000000
N2   N   0.385830275542246   0.437547735950860   0.375000000000000   1.0000000
N2   N   0.887638041166695   0.943322916966866   0.375000000000000   1.0000000
N2   N   0.724995696173127   0.447287672527991   0.375000000000000   1.0000000
N2   N   0.222219338581627   0.611107276261455   0.875000000000000   1.0000000
N2   N   0.055551762095440   0.111109742813303   0.875000000000000   1.0000000
N2   N   0.555556938185158   0.611109190196154   0.875000000000000   1.0000000
N2   N   0.388890633580482   0.111115496530966   0.875000000000000   1.0000000
N2   N   0.888884109938027   0.611108721635685   0.875000000000000   1.0000000
N2   N   0.057492845969834   0.611786089611830   0.375000000000000   1.0000000
N2   N   0.722223382759320   0.111110911521065   0.875000000000000   1.0000000
N2   N   0.221670686790616   0.111875523547674   0.375000000000000   1.0000000
N2   N   0.389584507053107   0.607422986380985   0.375000000000000   1.0000000
N2   N   0.724995696173127   0.611041356978471   0.375000000000000   1.0000000
N2   N   0.555406191255437   0.113940769705223   0.375000000000000   1.0000000
N2   N   0.388890633580482   0.611108470382859   0.875000000000000   1.0000000
N2   N   0.887094258990121   0.110213796161732   0.375000000000000   1.0000000
N2   N   0.222220196675562   0.777776765004449   0.875000000000000   1.0000000
N2   N   0.055551762095440   0.277775352615473   0.875000000000000   1.0000000
N2   N   0.388888199083046   0.277777574604853   0.875000000000000   1.0000000
N2   N   0.555558313861144   0.777778770055268   0.875000000000000   1.0000000
N2   N   0.888887637143624   0.777779963846653   0.875000000000000   1.0000000
N2   N   0.722223212139199   0.277777554504168   0.875000000000000   1.0000000
N2   N   0.057492845969834   0.779040089691339   0.375000000000000   1.0000000
N2   N   0.389836733507886   0.776942704614803   0.375000000000000   1.0000000
N2   N   0.218104403127754   0.275718868230545   0.375000000000000   1.0000000
N2   N   0.721553519896024   0.775763344827733   0.375000000000000   1.0000000
N2   N   0.555326814452267   0.284929158480811   0.375000000000000   1.0000000
N2   N   0.887638041166695   0.277648457533165   0.375000000000000   1.0000000
N2   N   0.055551422799682   0.444440083133230   0.875000000000000   1.0000000
N2   N   0.222219338581627   0.944445395653508   0.875000000000000   1.0000000
N2   N   0.555557225726777   0.944445279530053   0.875000000000000   1.0000000
N2   N   0.388888199083046   0.444443957811529   0.875000000000000   1.0000000
N2   N   0.888889646846754   0.944446286732247   0.875000000000000   1.0000000
N2   N   0.055752211179494   0.944806670501517   0.375000000000000   1.0000000
N2   N   0.722219351079635   0.444442789878719   0.875000000000000   1.0000000
N2   N   0.389836733507886   0.946227362226418   0.375000000000000   1.0000000
N2   N   0.221670686790616   0.443128496576279   0.375000000000000   1.0000000
N2   N   0.223498839235722   0.610682071377020   0.375000000000000   1.0000000
N2   N   0.721065398907651   0.943223119757968   0.375000000000000   1.0000000
N2   N   0.890022668643698   0.445198795593606   0.375000000000000   1.0000000
N2   N   0.055549915496721   0.611106554370938   0.875000000000000   1.0000000
N2   N   0.222218158018363   0.111111497986812   0.875000000000000   1.0000000
N2   N   0.722219351079635   0.611109894534252   0.875000000000000   1.0000000
N2   N   0.555558313861144   0.111112877139212   0.875000000000000   1.0000000
N2   N   0.888889307018624   0.111111320175983   0.875000000000000   1.0000000
B2   B   0.110107327477466   0.055554039021104   0.375000000000000   1.0000000
B2   B   0.617346165101793   0.557189766171371   0.375000000000000   1.0000000
B2   B   0.444406368373645   0.057933635683125   0.375000000000000   1.0000000
B2   B   0.946997525709758   0.556404463605366   0.375000000000000   1.0000000
B2   B   0.776192994059887   0.054763163696611   0.375000000000000   1.0000000
B2   B   0.111116455447771   0.722224894390550   0.875000000000000   1.0000000
B2   B   0.444441269303510   0.722233471140507   0.875000000000000   1.0000000
B2   B   0.277752011993120   0.222205689451022   0.875000000000000   1.0000000
B2   B   0.777796218185051   0.722251688051187   0.875000000000000   1.0000000
B2   B   0.611117612562097   0.222203168022800   0.875000000000000   1.0000000
B2   B   0.944442380179342   0.222214686977675   0.875000000000000   1.0000000
B2   B   0.278792107455685   0.722105284328650   0.375000000000000   1.0000000
B2   B   0.107253378411335   0.220293355872331   0.375000000000000   1.0000000
B2   B   0.443698175870345   0.226794857563829   0.375000000000000   1.0000000
B2   B   0.610792593121641   0.718975306564839   0.375000000000000   1.0000000
B2   B   0.946997525709758   0.723926395437728   0.375000000000000   1.0000000
B2   B   0.776705566080903   0.222217569455428   0.375000000000000   1.0000000
B2   B   0.111110054729209   0.888892047990572   0.875000000000000   1.0000000
B2   B   0.444445373147504   0.888889353240417   0.875000000000000   1.0000000
B2   B   0.277752011993120   0.388879655875427   0.875000000000000   1.0000000
B2   B   0.611112994087096   0.388878846866020   0.875000000000000   1.0000000
B2   B   0.777790223003354   0.888914014819961   0.875000000000000   1.0000000
B2   B   0.944453703660575   0.388879436404889   0.875000000000000   1.0000000
B2   B   0.110107327477466   0.387886621789690   0.375000000000000   1.0000000
B2   B   0.278792107455685   0.890020156460364   0.375000000000000   1.0000000
B2   B   0.610249573699640   0.887384964672664   0.375000000000000   1.0000000
B2   B   0.944748307866287   0.889343122341142   0.375000000000000   1.0000000
B2   B   0.779749832457925   0.389585886833670   0.375000000000000   1.0000000
B2   B   0.277762508021841   0.555553790979465   0.875000000000000   1.0000000
B2   B   0.111095571869412   0.055550012731211   0.875000000000000   1.0000000
B2   B   0.611112994087096   0.555567480554405   0.875000000000000   1.0000000
B2   B   0.444441269303510   0.055541131496339   0.875000000000000   1.0000000
B2   B   0.944460366207790   0.555554893214469   0.875000000000000   1.0000000
B2   B   0.112343340730806   0.555510992415280   0.375000000000000   1.0000000
B2   B   0.777786202118947   0.055559767726142   0.875000000000000   1.0000000
B2   B   0.278032402562964   0.057215516659293   0.375000000000000   1.0000000
B2   B   0.443698175870345   0.550236651639852   0.375000000000000   1.0000000
B2   B   0.782940243099963   0.558136788216649   0.375000000000000   1.0000000
B2   B   0.610249573699640   0.056197942360305   0.375000000000000   1.0000000
B2   B   0.444427941510848   0.555558879862282   0.875000000000000   1.0000000
B2   B   0.942405154858060   0.054396946884872   0.375000000000000   1.0000000
B2   B   0.277775003148361   0.722223772373313   0.875000000000000   1.0000000
B2   B   0.111089836037744   0.222211584685536   0.875000000000000   1.0000000
B2   B   0.444427941510848   0.222202394981902   0.875000000000000   1.0000000
B2   B   0.611117612562097   0.722247777872625   0.875000000000000   1.0000000
B2   B   0.944460366207790   0.722238806326657   0.875000000000000   1.0000000
B2   B   0.777790223003354   0.222209541516721   0.875000000000000   1.0000000
B2   B   0.112935205307713   0.723134269320521   0.375000000000000   1.0000000
B2   B   0.444406368373645   0.719806066023855   0.375000000000000   1.0000000
B2   B   0.273848077827825   0.221996508369288   0.375000000000000   1.0000000
B2   B   0.779749832457925   0.723497278957584   0.375000000000000   1.0000000
B2   B   0.610792593121641   0.225150619890130   0.375000000000000   1.0000000
B2   B   0.942405154858060   0.221341541306524   0.375000000000000   1.0000000
B2   B   0.111095571869412   0.388878892471529   0.875000000000000   1.0000000
B2   B   0.277775003148361   0.888884564108375   0.875000000000000   1.0000000
B2   B   0.611117905181293   0.888904035697384   0.875000000000000   1.0000000
B2   B   0.444421922096312   0.388877627714820   0.875000000000000   1.0000000
B2   B   0.944453703660575   0.888907600589016   0.875000000000000   1.0000000
B2   B   0.112343340730806   0.890165681648854   0.375000000000000   1.0000000
B2   B   0.777796218185051   0.388877863467192   0.875000000000000   1.0000000
B2   B   0.444540066960683   0.888936700147006   0.375000000000000   1.0000000
B2   B   0.273848077827825   0.385184902791865   0.375000000000000   1.0000000
B2   B   0.278032402562964   0.554150219237006   0.375000000000000   1.0000000
B2   B   0.617346165101793   0.393489732263750   0.375000000000000   1.0000000
B2   B   0.776705566080903   0.887821329958804   0.375000000000000   1.0000000
B2   B   0.944748307866287   0.388738518858472   0.375000000000000   1.0000000
B2   B   0.111110054729209   0.555551340071966   0.875000000000000   1.0000000
B2   B   0.277762508021841   0.055542050375712   0.875000000000000   1.0000000
B2   B   0.777796917294421   0.555565125313878   0.875000000000000   1.0000000
B2   B   0.611117905181293   0.055547202817238   0.875000000000000   1.0000000
B2   B   0.944442380179342   0.055561026535003   0.875000000000000   1.0000000
B2   B   0.055496787508532   0.111069255492374   0.124885311304819   1.0000000
B2   B   0.555500516773139   0.611144105640997   0.124980420766527   1.0000000
B2   B   0.388819279121543   0.111015443773050   0.124924935158924   1.0000000
B2   B   0.889027944321099   0.611180638827221   0.124848806291412   1.0000000
B2   B   0.722186776088876   0.111073692543932   0.124905845928140   1.0000000
B2   B   0.055625588942405   0.777808044053018   0.625103991843252   1.0000000
B2   B   0.388839528383409   0.777783831702410   0.625076317721923   1.0000000
B2   B   0.222113662255172   0.277723497794253   0.625172605165412   1.0000000
B2   B   0.722236229374226   0.777830576063002   0.625118059511118   1.0000000
B2   B   0.555500516773139   0.277689744465478   0.625019579233473   1.0000000
B2   B   0.888889505674124   0.277770051496966   0.625113267240284   1.0000000
B2   B   0.222226900992633   0.777780117162984   0.124916782333913   1.0000000
B2   B   0.055496787508532   0.277760865349494   0.124885311304819   1.0000000
B2   B   0.388817189759535   0.277758688883201   0.124644541012703   1.0000000
B2   B   0.555500618707882   0.777807508883348   0.124911243217202   1.0000000
B2   B   0.888970318286912   0.777834203388194   0.124854490693757   1.0000000
B2   B   0.722236229374226   0.277738986644559   0.124881940488883   1.0000000
B2   B   0.055561300412086   0.944430610795920   0.625101382924474   1.0000000
B2   B   0.388839528383409   0.944389030014334   0.625076317721923   1.0000000
B2   B   0.222150750867001   0.444446551084244   0.625086020619899   1.0000000
B2   B   0.555401116970077   0.444367225151703   0.625006284882519   1.0000000
B2   B   0.722186776088876   0.944446416878280   0.625094154071860   1.0000000
B2   B   0.888970318286912   0.444469448232053   0.625145509306243   1.0000000
B2   B   0.055561300412086   0.444464022949495   0.124898617075526   1.0000000
B2   B   0.222203224436267   0.944399251329159   0.124910581361104   1.0000000
B2   B   0.555498467765129   0.944415900549228   0.124915936241412   1.0000000
B2   B   0.388817189759535   0.444391834209670   0.124644541012703   1.0000000
B2   B   0.888889505674124   0.944452787510493   0.124886732759716   1.0000000
B2   B   0.722298627402836   0.444462019463648   0.124962428287896   1.0000000
B2   B   0.222203224436267   0.611137306440444   0.625089418638896   1.0000000
B2   B   0.055496787508532   0.111069255492374   0.625114688695181   1.0000000
B2   B   0.555500516773139   0.611144105640997   0.625019579233473   1.0000000
B2   B   0.388819279121543   0.111015443773050   0.625075064841076   1.0000000
B2   B   0.889027944321099   0.611180638827221   0.625151193708587   1.0000000
B2   B   0.055625588942405   0.611150878222723   0.124896008156748   1.0000000
B2   B   0.722186776088876   0.111073692543932   0.625094154071860   1.0000000
B2   B   0.222150750867001   0.111037533116092   0.124913979380101   1.0000000
B2   B   0.388819279121543   0.611137168681836   0.124924935158924   1.0000000
B2   B   0.722298627402836   0.611169941272523   0.124962428287896   1.0000000
B2   B   0.555500618707882   0.111026443157869   0.124911243217202   1.0000000
B2   B   0.388819279121543   0.611137168681836   0.625075064841076   1.0000000
B2   B   0.888853546426455   0.111093439879899   0.124904717200712   1.0000000
B2   B   0.222226900992633   0.777780117162984   0.625083217666087   1.0000000
B2   B   0.055496787508532   0.277760865349493   0.625114688695181   1.0000000
B2   B   0.388817189759535   0.277758688883201   0.625355458987296   1.0000000
B2   B   0.555500618707882   0.777807508883348   0.625088756782798   1.0000000
B2   B   0.888970318286912   0.777834203388194   0.625145509306243   1.0000000
B2   B   0.722236229374226   0.277738986644559   0.625118059511118   1.0000000
B2   B   0.055625588942405   0.777808044053018   0.124896008156748   1.0000000
B2   B   0.388839528383409   0.777783831702410   0.124923682278077   1.0000000
B2   B   0.222113662255172   0.277723497794253   0.124827394834588   1.0000000
B2   B   0.722236229374226   0.777830576063002   0.124881940488883   1.0000000
B2   B   0.555500516773139   0.277689744465478   0.124980420766527   1.0000000
B2   B   0.888889505674124   0.277770051496966   0.124886732759716   1.0000000
B2   B   0.055561300412086   0.444464022949495   0.625101382924474   1.0000000
B2   B   0.222203224436267   0.944399251329159   0.625089418638896   1.0000000
B2   B   0.555498467765129   0.944415900549228   0.625084063758588   1.0000000
B2   B   0.388817189759535   0.444391834209670   0.625355458987296   1.0000000
B2   B   0.888889505674124   0.944452787510493   0.625113267240284   1.0000000
B2   B   0.055561300412086   0.944430610795920   0.124898617075526   1.0000000
B2   B   0.722298627402836   0.444462019463648   0.625037571712103   1.0000000
B2   B   0.388839528383409   0.944389030014334   0.124923682278077   1.0000000
B2   B   0.222150750867001   0.444446551084244   0.124913979380101   1.0000000
B2   B   0.222203224436267   0.611137306440444   0.124910581361104   1.0000000
B2   B   0.555401116970077   0.444367225151703   0.124993715117482   1.0000000
B2   B   0.722186776088876   0.944446416878280   0.124905845928140   1.0000000
B2   B   0.888970318286912   0.444469448232053   0.124854490693757   1.0000000
B2   B   0.055625588942405   0.611150878222723   0.625103991843252   1.0000000
B2   B   0.222150750867001   0.111037533116092   0.625086020619899   1.0000000
B2   B   0.722298627402836   0.611169941272523   0.625037571712103   1.0000000
B2   B   0.555500618707882   0.111026443157869   0.625088756782798   1.0000000
B2   B   0.888853546426455   0.111093439879899   0.625095282799287   1.0000000


