data_1
_audit_creation_method   'vasp2cif'
_cell_length_a    14.93631414619966
_cell_length_b    14.936314146199727
_cell_length_c    13.341276283792837
_cell_angle_alpha    90.0
_cell_angle_beta    90.0
_cell_angle_gamma    119.99999999999984

_symmetry_space_group_name_H-M    'P 1'
loop_
_atom_site_label
_atom_site_type_symbol
_atom_site_fract_x
_atom_site_fract_y
_atom_site_fract_z
_atom_site_occupancy
C2   C   0.441127674539867   0.387230503936740   0.375000000000000   1.0000000
N2   N   0.110820072283526   0.055446726213108   0.122898180760496   1.0000000
N2   N   0.611027036800413   0.555798010512279   0.126216925527833   1.0000000
N2   N   0.444204976255471   0.055443392349320   0.123258340755105   1.0000000
N2   N   0.944182056352680   0.555404763958657   0.123642157423508   1.0000000
N2   N   0.777536000021407   0.055434666677174   0.123141439916448   1.0000000
N2   N   0.110839617500665   0.722086475416938   0.626593513921611   1.0000000
N2   N   0.444204976255471   0.722094917239639   0.626741659244625   1.0000000
N2   N   0.277441314707213   0.222083680247194   0.626470473536758   1.0000000
N2   N   0.777608537566471   0.722254118726501   0.626015181160511   1.0000000
N2   N   0.610945412893755   0.222043517033105   0.626052297184861   1.0000000
N2   N   0.944168263281505   0.222046527488685   0.627053800305670   1.0000000
N2   N   0.277514571503118   0.722077390416255   0.123120759151917   1.0000000
N2   N   0.110768695212260   0.222051014272853   0.122831853146213   1.0000000
N2   N   0.444174997764908   0.222085938937468   0.124507966535205   1.0000000
N2   N   0.610945412893755   0.722235229194080   0.123947702814941   1.0000000
N2   N   0.944182056352680   0.722110625727534   0.123642157423508   1.0000000
N2   N   0.777575283557197   0.222032389203813   0.123331027220797   1.0000000
N2   N   0.110836564412708   0.888783649763955   0.626841064138644   1.0000000
N2   N   0.444193575658535   0.888763454495933   0.627014775868583   1.0000000
N2   N   0.277441314707213   0.388690967793148   0.626470473536758   1.0000000
N2   N   0.611027036800413   0.388562359621496   0.623783074472176   1.0000000
N2   N   0.777575283557197   0.888876227686978   0.626668972779139   1.0000000
N2   N   0.944207307249151   0.388705581061307   0.626832657545850   1.0000000
N2   N   0.110820072283527   0.388706679403741   0.122898180760496   1.0000000
N2   N   0.277514571503118   0.888770514420306   0.123120759151917   1.0000000
N2   N   0.610873630014318   0.888795132134192   0.123231872125095   1.0000000
N2   N   0.444014742340984   0.388674037836995   0.126287859494102   1.0000000
N2   N   0.944207307249151   0.888835059520964   0.123167342453790   1.0000000
N2   N   0.777608537566471   0.388687752173173   0.123984818839679   1.0000000
N2   N   0.277503415691481   0.555385789386287   0.626840720776853   1.0000000
N2   N   0.110820072283527   0.055446726213111   0.627101819239607   1.0000000
N2   N   0.611027036800413   0.555798010512279   0.623783074472176   1.0000000
N2   N   0.444204976255471   0.055443392349335   0.626741659244625   1.0000000
N2   N   0.944182056352680   0.555404763958657   0.626357842576599   1.0000000
N2   N   0.110836564412708   0.555386247982142   0.123158935861527   1.0000000
N2   N   0.777536000021407   0.055434666677174   0.626858560083511   1.0000000
N2   N   0.277503415691481   0.055450959638660   0.123159279222693   1.0000000
N2   N   0.444174997764908   0.555422392160865   0.124507966535205   1.0000000
N2   N   0.777520023862719   0.555426678597899   0.125165427136853   1.0000000
N2   N   0.610873630014318   0.055411831213708   0.123231872125095   1.0000000
N2   N   0.444174997764908   0.555422392160865   0.625492033464722   1.0000000
N2   N   0.944168263281505   0.055455069125793   0.122946199694476   1.0000000
N2   N   0.277514571503118   0.722077390416255   0.626879240848071   1.0000000
N2   N   0.110768695212260   0.222051014272853   0.627168146853678   1.0000000
N2   N   0.444174997764908   0.222085938937468   0.625492033464722   1.0000000
N2   N   0.610945412893755   0.722235229194080   0.626052297184861   1.0000000
N2   N   0.944182056352680   0.722110625727534   0.626357842576599   1.0000000
N2   N   0.777575283557197   0.222032389203815   0.626668972779139   1.0000000
N2   N   0.110839617500665   0.722086475416938   0.123406486078409   1.0000000
N2   N   0.444204976255471   0.722094917239639   0.123258340755105   1.0000000
N2   N   0.277441314707213   0.222083680247183   0.123529526463191   1.0000000
N2   N   0.777608537566471   0.722254118726501   0.123984818839681   1.0000000
N2   N   0.610945412893755   0.222043517033105   0.123947702814940   1.0000000
N2   N   0.944168263281505   0.222046527488685   0.122946199694459   1.0000000
N2   N   0.110820072283527   0.388706679403741   0.627101819239607   1.0000000
N2   N   0.277514571503118   0.888770514420306   0.626879240848071   1.0000000
N2   N   0.610873630014318   0.888795132134192   0.626768127874920   1.0000000
N2   N   0.444014742340984   0.388674037836995   0.623712140505766   1.0000000
N2   N   0.944207307249151   0.888835059520964   0.626832657545850   1.0000000
N2   N   0.110836564412708   0.888783649763955   0.123158935861527   1.0000000
N2   N   0.777608537566471   0.388687752173173   0.626015181160511   1.0000000
N2   N   0.444193575658535   0.888763454495933   0.122985224131189   1.0000000
N2   N   0.277441314707213   0.388690967793148   0.123529526463189   1.0000000
N2   N   0.277503415691481   0.555385789386287   0.123159279222693   1.0000000
N2   N   0.611027036800413   0.388562359621496   0.126216925527832   1.0000000
N2   N   0.777575283557197   0.888876227686978   0.123331027220797   1.0000000
N2   N   0.944207307249151   0.388705581061307   0.123167342453789   1.0000000
N2   N   0.110836564412708   0.555386247982142   0.626841064138644   1.0000000
N2   N   0.277503415691481   0.055450959638661   0.626840720776853   1.0000000
N2   N   0.777520023862719   0.555426678597899   0.624834572863069   1.0000000
N2   N   0.610873630014318   0.055411831213708   0.626768127874920   1.0000000
N2   N   0.944168263281505   0.055455069125792   0.627053800305670   1.0000000
N2   N   0.052266345719187   0.109038661567843   0.375000000000000   1.0000000
N2   N   0.555776428241469   0.597418020678124   0.375000000000000   1.0000000
N2   N   0.389987012753462   0.115814544458079   0.375000000000000   1.0000000
N2   N   0.895955670674303   0.614644502003927   0.375000000000000   1.0000000
N2   N   0.720627208692282   0.111600551380273   0.375000000000000   1.0000000
N2   N   0.055909027968803   0.777950199266285   0.875000000000000   1.0000000
N2   N   0.389214830694195   0.777958315452426   0.875000000000000   1.0000000
N2   N   0.222563129875511   0.277948231604425   0.875000000000000   1.0000000
N2   N   0.722552695210541   0.777925045587585   0.875000000000000   1.0000000
N2   N   0.555864065311264   0.277922564072159   0.875000000000000   1.0000000
N2   N   0.889225780977954   0.277959732416554   0.875000000000000   1.0000000
N2   N   0.225464639397121   0.779398986365147   0.375000000000000   1.0000000
N2   N   0.052266345719186   0.276561017484608   0.375000000000000   1.0000000
N2   N   0.383295011584759   0.279684817664557   0.375000000000000   1.0000000
N2   N   0.555770933771259   0.772427337304164   0.375000000000000   1.0000000
N2   N   0.891317495071055   0.778245233945139   0.375000000000000   1.0000000
N2   N   0.721359874664985   0.280722600049690   0.375000000000000   1.0000000
N2   N   0.055891652396981   0.944603572067287   0.875000000000000   1.0000000
N2   N   0.389214830694195   0.944589848574853   0.875000000000000   1.0000000
N2   N   0.222555983265278   0.444628196457897   0.875000000000000   1.0000000
N2   N   0.555886889518490   0.444610111425909   0.875000000000000   1.0000000
N2   N   0.722551747875567   0.944599549043928   0.875000000000000   1.0000000
N2   N   0.889238774075156   0.444633969916499   0.875000000000000   1.0000000
N2   N   0.055808139120111   0.444721241629565   0.375000000000000   1.0000000
N2   N   0.224525156338120   0.946642758313219   0.375000000000000   1.0000000
N2   N   0.555835531306259   0.944584432319866   0.375000000000000   1.0000000
N2   N   0.383295011584760   0.436943527253699   0.375000000000000   1.0000000
N2   N   0.887024290914837   0.942383032912492   0.375000000000000   1.0000000
N2   N   0.727733972047865   0.449643086861418   0.375000000000000   1.0000000
N2   N   0.222545378998556   0.611295117260559   0.875000000000000   1.0000000
N2   N   0.055895014871196   0.111274237652687   0.875000000000000   1.0000000
N2   N   0.555864065311264   0.611274834572394   0.875000000000000   1.0000000
N2   N   0.389199387200552   0.111228822303568   0.875000000000000   1.0000000
N2   N   0.889258757067195   0.611296045200103   0.875000000000000   1.0000000
N2   N   0.059685490078371   0.612854181650378   0.375000000000000   1.0000000
N2   N   0.722551747875567   0.111285532164734   0.875000000000000   1.0000000
N2   N   0.220343722141305   0.110638666968948   0.375000000000000   1.0000000
N2   N   0.389987012753462   0.607505801628837   0.375000000000000   1.0000000
N2   N   0.727733972047865   0.611424218519978   0.375000000000000   1.0000000
N2   N   0.555770933771259   0.116676929800353   0.375000000000000   1.0000000
N2   N   0.389199387200552   0.611303898230209   0.875000000000000   1.0000000
N2   N   0.886123133033534   0.109728233183430   0.375000000000000   1.0000000
N2   N   0.222555055654181   0.777944194493657   0.875000000000000   1.0000000
N2   N   0.055895014871196   0.277954110551921   0.875000000000000   1.0000000
N2   N   0.389217084021341   0.277924486431921   0.875000000000000   1.0000000
N2   N   0.555879160266961   0.777947194748600   0.875000000000000   1.0000000
N2   N   0.889238774075156   0.777938137491859   0.875000000000000   1.0000000
N2   N   0.722552695210541   0.277960982956121   0.875000000000000   1.0000000
N2   N   0.059685490078372   0.780164641761245   0.375000000000000   1.0000000
N2   N   0.390849481473689   0.777336045757246   0.375000000000000   1.0000000
N2   N   0.216499276799172   0.274916305066291   0.375000000000000   1.0000000
N2   N   0.721359874664985   0.773970607948811   0.375000000000000   1.0000000
N2   N   0.555776428241469   0.291691740896750   0.375000000000000   1.0000000
N2   N   0.887024290914837   0.277974591335423   0.375000000000000   1.0000000
N2   N   0.055891652396981   0.444621413662741   0.875000000000000   1.0000000
N2   N   0.222545378998562   0.944583595071227   0.875000000000000   1.0000000
N2   N   0.555886711157769   0.944610022245223   0.875000000000000   1.0000000
N2   N   0.389217084021341   0.444625930923155   0.875000000000000   1.0000000
N2   N   0.889225780977954   0.944599381894603   0.875000000000000   1.0000000
N2   N   0.055808139120108   0.944420230823665   0.375000000000000   1.0000000
N2   N   0.722571096608099   0.444633447081947   0.875000000000000   1.0000000
N2   N   0.390849481473689   0.946846769050179   0.375000000000000   1.0000000
N2   N   0.220343722141304   0.443038388505766   0.375000000000000   1.0000000
N2   N   0.224525156338120   0.611215731358255   0.375000000000000   1.0000000
N2   N   0.720627208692282   0.942359990645520   0.375000000000000   1.0000000
N2   N   0.891317495071055   0.446405594458496   0.375000000000000   1.0000000
N2   N   0.055909027968805   0.611292162035951   0.875000000000000   1.0000000
N2   N   0.222555983265278   0.111261120140618   0.875000000000000   1.0000000
N2   N   0.722571096608099   0.611270982859531   0.875000000000000   1.0000000
N2   N   0.555879160266961   0.111265298851694   0.875000000000000   1.0000000
N2   N   0.889219745835022   0.111276539584231   0.875000000000000   1.0000000
B2   B   0.109685086093956   0.054984531214910   0.375000000000000   1.0000000
B2   B   0.613631427559370   0.530485316469743   0.375000000000000   1.0000000
B2   B   0.445158813931798   0.059637207320255   0.375000000000000   1.0000000
B2   B   0.948504335666889   0.557421679389958   0.375000000000000   1.0000000
B2   B   0.774908900090921   0.054121116712167   0.375000000000000   1.0000000
B2   B   0.111426679793064   0.722380006563480   0.875000000000000   1.0000000
B2   B   0.444774770406142   0.722337088025262   0.875000000000000   1.0000000
B2   B   0.278255316503452   0.222472945865338   0.875000000000000   1.0000000
B2   B   0.778021513317308   0.722230417826042   0.875000000000000   1.0000000
B2   B   0.611391814299314   0.222480516997725   0.875000000000000   1.0000000
B2   B   0.944782692433014   0.222420816051017   0.875000000000000   1.0000000
B2   B   0.280132303935681   0.722543174771657   0.375000000000000   1.0000000
B2   B   0.106758703652680   0.220046018493006   0.375000000000000   1.0000000
B2   B   0.445593980793731   0.229934275981356   0.375000000000000   1.0000000
B2   B   0.609332767218510   0.710602354918141   0.375000000000000   1.0000000
B2   B   0.948504335666889   0.724415989610503   0.375000000000000   1.0000000
B2   B   0.775173039669115   0.223695119940996   0.375000000000000   1.0000000
B2   B   0.111448368977034   0.889035571717032   0.875000000000000   1.0000000
B2   B   0.444769891483365   0.889051612408022   0.875000000000000   1.0000000
B2   B   0.278255316503452   0.389115703971498   0.875000000000000   1.0000000
B2   B   0.611391203806080   0.389119995138764   0.875000000000000   1.0000000
B2   B   0.778060698059065   0.888940610490173   0.875000000000000   1.0000000
B2   B   0.944746963598835   0.389103609050108   0.875000000000000   1.0000000
B2   B   0.109685086093965   0.388033888212308   0.375000000000000   1.0000000
B2   B   0.280132303935680   0.890922462497732   0.375000000000000   1.0000000
B2   B   0.609682302185560   0.885186423436723   0.375000000000000   1.0000000
B2   B   0.944417267937461   0.888118032378666   0.375000000000000   1.0000000
B2   B   0.778818251156958   0.392758528025740   0.375000000000000   1.0000000
B2   B   0.278174902977123   0.555747037904867   0.875000000000000   1.0000000
B2   B   0.111502620953982   0.055734626053227   0.875000000000000   1.0000000
B2   B   0.611391203806080   0.555604542000433   0.875000000000000   1.0000000
B2   B   0.444774770406142   0.055771015714095   0.875000000000000   1.0000000
B2   B   0.944725132231088   0.555738450335299   0.875000000000000   1.0000000
B2   B   0.113528935663323   0.556117405985676   0.375000000000000   1.0000000
B2   B   0.778067901132145   0.055700617232777   0.875000000000000   1.0000000
B2   B   0.279221065392971   0.058316335544529   0.375000000000000   1.0000000
B2   B   0.445593980793731   0.548993038145459   0.375000000000000   1.0000000
B2   B   0.784897874239113   0.559115603785994   0.375000000000000   1.0000000
B2   B   0.609682302185560   0.057829212082686   0.375000000000000   1.0000000
B2   B   0.444828997188174   0.555686159768384   0.875000000000000   1.0000000
B2   B   0.941287607089336   0.053292069000266   0.375000000000000   1.0000000
B2   B   0.278126122078240   0.722390589590908   0.875000000000000   1.0000000
B2   B   0.111532706301746   0.222433019817593   0.875000000000000   1.0000000
B2   B   0.444828997188177   0.222476170753243   0.875000000000000   1.0000000
B2   B   0.611391814299314   0.722244630634902   0.875000000000000   1.0000000
B2   B   0.944725132231088   0.722320015228716   0.875000000000000   1.0000000
B2   B   0.778060698059065   0.222453420902362   0.875000000000000   1.0000000
B2   B   0.114525437245566   0.723929385289239   0.375000000000000   1.0000000
B2   B   0.445158813931798   0.718854939944996   0.375000000000000   1.0000000
B2   B   0.273745792214710   0.221519484170823   0.375000000000000   1.0000000
B2   B   0.778818251156964   0.719393056464586   0.375000000000000   1.0000000
B2   B   0.609332767218510   0.232063745634113   0.375000000000000   1.0000000
B2   B   0.941287607089336   0.221328871422443   0.375000000000000   1.0000000
B2   B   0.111502620953998   0.389101328234141   0.875000000000000   1.0000000
B2   B   0.278126122078240   0.889068865820784   0.875000000000000   1.0000000
B2   B   0.611410810687621   0.888995144815004   0.875000000000000   1.0000000
B2   B   0.444900643634458   0.389116988483931   0.875000000000000   1.0000000
B2   B   0.944746963598835   0.888976687882013   0.875000000000000   1.0000000
B2   B   0.113528935663301   0.890744863011073   0.375000000000000   1.0000000
B2   B   0.778021513317308   0.389124428824489   0.875000000000000   1.0000000
B2   B   0.445221028904431   0.889277181119091   0.375000000000000   1.0000000
B2   B   0.273745792214710   0.385559641377186   0.375000000000000   1.0000000
B2   B   0.279221065392971   0.554238063181811   0.375000000000000   1.0000000
B2   B   0.613631427559365   0.416479444422841   0.375000000000000   1.0000000
B2   B   0.775173039669110   0.884811253061179   0.375000000000000   1.0000000
B2   B   0.944417267937461   0.389632568892294   0.375000000000000   1.0000000
B2   B   0.111448368977034   0.555746130593102   0.875000000000000   1.0000000
B2   B   0.278174902977123   0.055761198405702   0.875000000000000   1.0000000
B2   B   0.778011706258472   0.555672519795835   0.875000000000000   1.0000000
B2   B   0.611410810687621   0.055748999205998   0.875000000000000   1.0000000
B2   B   0.944782692433014   0.055695209715352   0.875000000000000   1.0000000
B2   B   0.055298802878260   0.111013933167325   0.123158166754794   1.0000000
B2   B   0.555576294433547   0.610750660298352   0.126074076312289   1.0000000
B2   B   0.388864777505616   0.111432692889387   0.124081246616908   1.0000000
B2   B   0.888183825344796   0.610758579339117   0.124721316018110   1.0000000
B2   B   0.721967312088380   0.111027045528773   0.123581825633222   1.0000000
B2   B   0.055111334260786   0.777573107917448   0.626278321808754   1.0000000
B2   B   0.388728538403834   0.777580567763240   0.626594512102391   1.0000000
B2   B   0.222111370832882   0.277722352083003   0.626269012573278   1.0000000
B2   B   0.721925987923712   0.777513453311214   0.625611521212074   1.0000000
B2   B   0.555576294433547   0.278158967468346   0.623925923687612   1.0000000
B2   B   0.888570711522203   0.277626239329900   0.626512850995174   1.0000000
B2   B   0.221951219871665   0.777642276602725   0.123480325929885   1.0000000
B2   B   0.055298802878260   0.277618203043986   0.123158166754793   1.0000000
B2   B   0.388988448789624   0.278177528818172   0.125745809348169   1.0000000
B2   B   0.555410795592158   0.777510775509471   0.123901744022168   1.0000000
B2   B   0.888400863360818   0.777517061027672   0.124071468121637   1.0000000
B2   B   0.721925987923712   0.277745867946104   0.124388478788048   1.0000000
B2   B   0.055242311323011   0.944340559492067   0.626629682369097   1.0000000
B2   B   0.388728538403904   0.944481303973854   0.626594512102391   1.0000000
B2   B   0.222099641661221   0.444224333656434   0.626500732310603   1.0000000
B2   B   0.555526970952893   0.444430152143111   0.616298014040998   1.0000000
B2   B   0.721967312088380   0.944273599892976   0.626418174366866   1.0000000
B2   B   0.888400863360818   0.444217135666330   0.625928531878443   1.0000000
B2   B   0.055242311323011   0.444235085164481   0.123370317630893   1.0000000
B2   B   0.222007570457591   0.944467126913741   0.123427539983590   1.0000000
B2   B   0.555354166514656   0.944343749924210   0.123447878574228   1.0000000
B2   B   0.388988448789624   0.444144253304848   0.125745809348169   1.0000000
B2   B   0.888570711522203   0.944277805525778   0.123487149005170   1.0000000
B2   B   0.721563413130815   0.444140293132382   0.126557871894797   1.0000000
B2   B   0.222007570457591   0.610873776877192   0.626572460016689   1.0000000
B2   B   0.055298802878260   0.111013933167324   0.626841833245485   1.0000000
B2   B   0.555576294433547   0.610750660298352   0.623925923687612   1.0000000
B2   B   0.388864777505616   0.111432692889387   0.625918753382939   1.0000000
B2   B   0.888183825344796   0.610758579339117   0.625278683981692   1.0000000
B2   B   0.055111334260787   0.610871559676365   0.123721678191448   1.0000000
B2   B   0.721967312088380   0.111027045528773   0.626418174366866   1.0000000
B2   B   0.222099641661221   0.111208641338198   0.123499267689582   1.0000000
B2   B   0.388864777505616   0.610765417949462   0.124081246616908   1.0000000
B2   B   0.721563413130815   0.610756453331677   0.126557871894796   1.0000000
B2   B   0.555410795592158   0.111233353416251   0.123901744022168   1.0000000
B2   B   0.388864777505616   0.610765417949462   0.625918753382937   1.0000000
B2   B   0.888605536601053   0.110969434967100   0.123299104017300   1.0000000
B2   B   0.221951219871665   0.777642276602725   0.626519674070135   1.0000000
B2   B   0.055298802878260   0.277618203043986   0.626841833245485   1.0000000
B2   B   0.388988448789624   0.278177528818172   0.624254190651753   1.0000000
B2   B   0.555410795592158   0.777510775509471   0.626098255977968   1.0000000
B2   B   0.888400863360818   0.777517061027672   0.625928531878444   1.0000000
B2   B   0.721925987923712   0.277745867946104   0.625611521212074   1.0000000
B2   B   0.055111334260786   0.777573107917448   0.123721678191448   1.0000000
B2   B   0.388728538403904   0.777580567763240   0.123405487897653   1.0000000
B2   B   0.222111370832882   0.277722352083003   0.123730987426528   1.0000000
B2   B   0.721925987923712   0.777513453311214   0.124388478788048   1.0000000
B2   B   0.555576294433547   0.278158967468346   0.126074076312254   1.0000000
B2   B   0.888570711522203   0.277626239329900   0.123487149005170   1.0000000
B2   B   0.055242311323011   0.444235085164481   0.626629682369097   1.0000000
B2   B   0.222007570457591   0.944467126913741   0.626572460016689   1.0000000
B2   B   0.555354166514656   0.944343749924210   0.626552121425622   1.0000000
B2   B   0.388988448789624   0.444144253304848   0.624254190651753   1.0000000
B2   B   0.888570711522203   0.944277805525778   0.626512850995174   1.0000000
B2   B   0.055242311323011   0.944340559492067   0.123370317630893   1.0000000
B2   B   0.721563413130815   0.444140293132386   0.623442128105079   1.0000000
B2   B   0.388728538403904   0.944481303973848   0.123405487897653   1.0000000
B2   B   0.222099641661221   0.444224333656434   0.123499267689582   1.0000000
B2   B   0.222007570457591   0.610873776877192   0.123427539983590   1.0000000
B2   B   0.555526970952893   0.444430152143111   0.133701985959023   1.0000000
B2   B   0.721967312088380   0.944273599892976   0.123581825633220   1.0000000
B2   B   0.888400863360818   0.444217135666330   0.124071468121635   1.0000000
B2   B   0.055111334260786   0.610871559676365   0.626278321808754   1.0000000
B2   B   0.222099641661221   0.111208641338198   0.626500732310603   1.0000000
B2   B   0.721563413130815   0.610756453331677   0.623442128105079   1.0000000
B2   B   0.555410795592158   0.111233353416251   0.626098255977968   1.0000000
B2   B   0.888605536601053   0.110969434967101   0.626700895982655   1.0000000


