data_1
_audit_creation_method   'vasp2cif'
_cell_length_a    17.52789999999977
_cell_length_b    17.52789999999977
_cell_length_c    15.0
_cell_angle_alpha    90.0
_cell_angle_beta    90.0
_cell_angle_gamma    119.99999999999916

_symmetry_space_group_name_H-M    'P 1'
loop_
_atom_site_label
_atom_site_type_symbol
_atom_site_fract_x
_atom_site_fract_y
_atom_site_fract_z
_atom_site_occupancy
B2   B   0.906119395438973   0.953862122966283   0.110835012524045   1.0000000
B2   B   0.904471975503462   0.095530045692498   0.110711060829927   1.0000000
B2   B   0.904083643277651   0.237910719410569   0.110968516651925   1.0000000
B2   B   0.904845688972223   0.380852951911503   0.110878071282115   1.0000000
B2   B   0.907863764062944   0.524523042905251   0.110644926449663   1.0000000
B2   B   0.908247697902998   0.668465373647735   0.110841437053126   1.0000000
B2   B   0.908661951297619   0.812540767103530   0.110937198922593   1.0000000
B2   B   0.047943876179198   0.952058145016781   0.110882674577844   1.0000000
B2   B   0.046139898229712   0.093882625757018   0.110835012524045   1.0000000
B2   B   0.045424283091061   0.236802100906990   0.110841498372086   1.0000000
B2   B   0.045749076680988   0.380397719066018   0.110953071733379   1.0000000
B2   B   0.047206362733057   0.524131145846702   0.110934977000245   1.0000000
B2   B   0.048862537261542   0.667283542645997   0.110901828522363   1.0000000
B2   B   0.048994147153512   0.809971537962806   0.110892883591990   1.0000000
B2   B   0.190030483233177   0.951007874042463   0.110892883591990   1.0000000
B2   B   0.187461254092469   0.091340069898436   0.110937198922593   1.0000000
B2   B   0.185788984453951   0.233742071967857   0.110878785827232   1.0000000
B2   B   0.185939355805996   0.378748434610129   0.110964775480421   1.0000000
B2   B   0.186376382502207   0.524002185368507   0.110928233674749   1.0000000
B2   B   0.190179755736982   0.667154839088236   0.110771189407744   1.0000000
B2   B   0.190627136393419   0.809374884802596   0.110779618409678   1.0000000
B2   B   0.332718478550986   0.951139483934450   0.110901828522363   1.0000000
B2   B   0.331536647549236   0.091754323293032   0.110841437053126   1.0000000
B2   B   0.326064154403768   0.229397763050316   0.110986561337350   1.0000000
B2   B   0.324669260275313   0.373429559311190   0.111241488552906   1.0000000
B2   B   0.323204537652797   0.522883420304047   0.111438863357314   1.0000000
B2   B   0.332199051964865   0.667802969232112   0.111024385246446   1.0000000
B2   B   0.332847182108766   0.809822265459025   0.110771189407744   1.0000000
B2   B   0.475870875350268   0.952795658462953   0.110934977000245   1.0000000
B2   B   0.475478978291760   0.092138257133021   0.110644926449663   1.0000000
B2   B   0.474595878195521   0.229879174024087   0.111321449027292   1.0000000
B2   B   0.462846574722426   0.355622493246522   0.112455576776237   1.0000000
B2   B   0.477118600892956   0.676797483544189   0.111438863357314   1.0000000
B2   B   0.475999835828503   0.813625638693805   0.110928233674749   1.0000000
B2   B   0.619604302129979   0.954252944514998   0.110953071733379   1.0000000
B2   B   0.619149069284517   0.095156332223792   0.110878071282115   1.0000000
B2   B   0.619307503770580   0.236504597882678   0.110651104672527   1.0000000
B2   B   0.620782771589271   0.379219249606743   0.112427009897403   1.0000000
B2   B   0.644379527949505   0.537155446474581   0.112455576776236   1.0000000
B2   B   0.626572461884802   0.675332760921707   0.111241488552906   1.0000000
B2   B   0.621253586585905   0.814062665390005   0.110964775480421   1.0000000
B2   B   0.763199920289021   0.954577738104936   0.110841498372086   1.0000000
B2   B   0.762091301785407   0.095918377918349   0.110968516651925   1.0000000
B2   B   0.762111972081660   0.237890049114325   0.110811572335174   1.0000000
B2   B   0.763497423313322   0.380694517425438   0.110651104672527   1.0000000
B2   B   0.770122847171891   0.525406143001522   0.111321449027292   1.0000000
B2   B   0.770604258145665   0.673937866793264   0.110986561337350   1.0000000
B2   B   0.766259949228138   0.814213036742047   0.110878785827232   1.0000000
N2   N   0.953990749094649   0.906534910577651   0.110912401148216   1.0000000
N2   N   0.951975574754239   0.048025827163765   0.110652387931275   1.0000000
N2   N   0.951122528108850   0.190124748515366   0.110765477658027   1.0000000
N2   N   0.951398667140124   0.332795257557793   0.111030579917686   1.0000000
N2   N   0.953266728791120   0.475973633933146   0.110921026260821   1.0000000
N2   N   0.954544440445138   0.619751857294106   0.110824892482953   1.0000000
N2   N   0.954759815768186   0.763445518795281   0.110939252310174   1.0000000
N2   N   0.095502708090364   0.904498693827666   0.110813639418252   1.0000000
N2   N   0.093466491340333   0.046010652823323   0.110912401148216   1.0000000
N2   N   0.091918331883796   0.188242883141314   0.110887391997164   1.0000000
N2   N   0.091992321245467   0.331774236601115   0.110877507559046   1.0000000
N2   N   0.092699400929155   0.475641452535397   0.110870808163694   1.0000000
N2   N   0.095509447553888   0.619235966675712   0.110888275991798   1.0000000
N2   N   0.096065790519168   0.762121554657056   0.110851871953040   1.0000000
N2   N   0.237879847260933   0.903935611398814   0.110851871953040   1.0000000
N2   N   0.236555883122704   0.045241586149842   0.110939252310174   1.0000000
N2   N   0.232379009112937   0.184916641881753   0.110846608182927   1.0000000
N2   N   0.231103687820786   0.328339293727712   0.110878729185216   1.0000000
N2   N   0.230509733844374   0.474707079173868   0.111134164300119   1.0000000
N2   N   0.237003441789386   0.619342442837616   0.110797132415710   1.0000000
N2   N   0.238011227034193   0.761990174883834   0.110654281967042   1.0000000
N2   N   0.380765435242256   0.904491954364110   0.110888275991798   1.0000000
N2   N   0.380249544623892   0.045456961472878   0.110824892482953   1.0000000
N2   N   0.378364784376781   0.185646430301369   0.110857587486958   1.0000000
N2   N   0.370054083986036   0.322291141963395   0.111355884557783   1.0000000
N2   N   0.361030546043096   0.468490716791716   0.111471849874926   1.0000000
N2   N   0.379738876230708   0.620262525687285   0.111472193794323   1.0000000
N2   N   0.380658959080352   0.762997960128615   0.110797132415710   1.0000000
N2   N   0.524359949381587   0.907302000988847   0.110870808163694   1.0000000
N2   N   0.524027767983855   0.046734673126904   0.110921026260820   1.0000000
N2   N   0.523912755371332   0.185785245895860   0.110365358511360   1.0000000
N2   N   0.523000015725906   0.322623903495323   0.112884058362350   1.0000000
N2   N   0.531510685125345   0.638970855874901   0.111471849874926   1.0000000
N2   N   0.525294322743119   0.769491668073601   0.111134164300119   1.0000000
N2   N   0.668227165315908   0.908009080672557   0.110877507559046   1.0000000
N2   N   0.667206144359222   0.048602734777857   0.111030579917686   1.0000000
N2   N   0.667184903363996   0.189911989863932   0.110646957997598   1.0000000
N2   N   0.668018886767135   0.331982515149898   0.111058988486002   1.0000000
N2   N   0.677377498421685   0.477001386191092   0.112884058362350   1.0000000
N2   N   0.677710259953582   0.629947317931978   0.111355884557783   1.0000000
N2   N   0.671662108189312   0.768897714097224   0.110878729185216   1.0000000
N2   N   0.811758518776667   0.908083070034245   0.110887391997164   1.0000000
N2   N   0.809876653402668   0.048878873809143   0.110765477658027   1.0000000
N2   N   0.809441361065289   0.190560040852738   0.111000120257935   1.0000000
N2   N   0.810089412054024   0.332816498552986   0.110646957997598   1.0000000
N2   N   0.814216156022163   0.476088646545667   0.110365358511360   1.0000000
N2   N   0.814354971616639   0.621636617541213   0.110857587486958   1.0000000
N2   N   0.815084760036258   0.767622392805044   0.110846608182927   1.0000000
Si2   Si   0.467303466437558   0.532698554759501   0.111225457488428   1.0000000
Si2   Si   0.530843447946991   0.469157953970021   0.111896076290475   1.0000000


