data_1
_audit_creation_method   'vasp2cif'
_cell_length_a    14.93631414619966
_cell_length_b    14.936314146199727
_cell_length_c    13.341276283792837
_cell_angle_alpha    90.0
_cell_angle_beta    90.0
_cell_angle_gamma    119.99999999999984

_symmetry_space_group_name_H-M    'P 1'
loop_
_atom_site_label
_atom_site_type_symbol
_atom_site_fract_x
_atom_site_fract_y
_atom_site_fract_z
_atom_site_occupancy
Si2   Si   0.427433871137972   0.380383602235646   0.375000000000000   1.0000000
Si2   Si   0.578977917191807   0.456155625262564   0.375000000000000   1.0000000
N2   N   0.111029180063743   0.055487759797953   0.125134240020425   1.0000000
N2   N   0.611076099713115   0.555588223653980   0.123072827677655   1.0000000
N2   N   0.444396173224614   0.055510681457133   0.125129483134445   1.0000000
N2   N   0.944376460614535   0.555530776361835   0.125282634917681   1.0000000
N2   N   0.777748577227641   0.055540955280489   0.124965380730324   1.0000000
N2   N   0.111049832050956   0.722191582692138   0.624758507610123   1.0000000
N2   N   0.444396173224614   0.722218825100816   0.624870516865554   1.0000000
N2   N   0.277658752839176   0.222140453766084   0.624941998053913   1.0000000
N2   N   0.777726827760678   0.722206817608480   0.625274538011902   1.0000000
N2   N   0.611062810603037   0.222184347028775   0.625267204221135   1.0000000
N2   N   0.944397076753029   0.222205292827042   0.625021157070906   1.0000000
N2   N   0.277723637321084   0.722206855107311   0.125189822739453   1.0000000
N2   N   0.111028479970620   0.222180906651971   0.125015985314903   1.0000000
N2   N   0.444374620851421   0.222159573043912   0.124690424992410   1.0000000
N2   N   0.611062810603037   0.722211796907590   0.124732795778864   1.0000000
N2   N   0.944376460614535   0.722179017586028   0.125282634917681   1.0000000
N2   N   0.777740495006054   0.222197576780412   0.124930130528878   1.0000000
N2   N   0.111046644412510   0.888836498325105   0.624786093096643   1.0000000
N2   N   0.444402547228254   0.888867940280787   0.624853254720839   1.0000000
N2   N   0.277658752839176   0.388851632406428   0.624941998053913   1.0000000
N2   N   0.611076099713115   0.388821209392463   0.626927172322345   1.0000000
N2   N   0.777740495006054   0.888876251558972   0.625069869471121   1.0000000
N2   N   0.944386923366143   0.388872337208936   0.624893724549259   1.0000000
N2   N   0.111029180063743   0.388874753599119   0.125134240020425   1.0000000
N2   N   0.277723637321084   0.888850115547102   0.125189822739453   1.0000000
N2   N   0.611076797580116   0.888880196456567   0.125045498954091   1.0000000
N2   N   0.444164638607261   0.388748985970292   0.124400258072350   1.0000000
N2   N   0.944386923366143   0.888847919490535   0.125106275450741   1.0000000
N2   N   0.777726827760678   0.388853343485528   0.124725461988097   1.0000000
N2   N   0.277711160435345   0.555546787511015   0.624773250860867   1.0000000
N2   N   0.111029180063743   0.055487759797953   0.624865759979576   1.0000000
N2   N   0.611076099713115   0.555588223653980   0.626927172322345   1.0000000
N2   N   0.444396173224614   0.055510681457133   0.624870516865554   1.0000000
N2   N   0.944376460614535   0.555530776361835   0.624717365082319   1.0000000
N2   N   0.111046644412510   0.555543479420733   0.125213906903358   1.0000000
N2   N   0.777748577227641   0.055540955280489   0.625034619269676   1.0000000
N2   N   0.277711160435345   0.055497706257667   0.125226749139133   1.0000000
N2   N   0.444374620851421   0.555548381140843   0.124690424992410   1.0000000
N2   N   0.777688573303381   0.555510953318359   0.124814854701714   1.0000000
N2   N   0.611076797580116   0.055529934456878   0.125045498954091   1.0000000
N2   N   0.444374620851421   0.555548381140843   0.625309575007590   1.0000000
N2   N   0.944397076753029   0.055525117259322   0.124978842929094   1.0000000
N2   N   0.277723637321084   0.722206855107311   0.624810177260547   1.0000000
N2   N   0.111028479970620   0.222180906651971   0.624984014685097   1.0000000
N2   N   0.444374620851421   0.222159573043912   0.625309575007590   1.0000000
N2   N   0.611062810603037   0.722211796907590   0.625267204221135   1.0000000
N2   N   0.944376460614535   0.722179017586028   0.624717365082319   1.0000000
N2   N   0.777740495006054   0.222197576780412   0.625069869471121   1.0000000
N2   N   0.111049832050956   0.722191582692138   0.125241492389884   1.0000000
N2   N   0.444396173224614   0.722218825100816   0.125129483134445   1.0000000
N2   N   0.277658752839176   0.222140453766084   0.125058001946086   1.0000000
N2   N   0.777726827760678   0.722206817608480   0.124725461988097   1.0000000
N2   N   0.611062810603037   0.222184347028775   0.124732795778864   1.0000000
N2   N   0.944397076753029   0.222205292827042   0.124978842929094   1.0000000
N2   N   0.111029180063743   0.388874753599119   0.624865759979576   1.0000000
N2   N   0.277723637321084   0.888850115547102   0.624810177260547   1.0000000
N2   N   0.611076797580116   0.888880196456567   0.624954501045909   1.0000000
N2   N   0.444164638607261   0.388748985970292   0.625599741927650   1.0000000
N2   N   0.944386923366143   0.888847919490535   0.624893724549259   1.0000000
N2   N   0.111046644412510   0.888836498325105   0.125213906903358   1.0000000
N2   N   0.777726827760678   0.388853343485528   0.625274538011902   1.0000000
N2   N   0.444402547228254   0.888867940280787   0.125146745279162   1.0000000
N2   N   0.277658752839176   0.388851632406428   0.125058001946086   1.0000000
N2   N   0.277711160435345   0.555546787511015   0.125226749139133   1.0000000
N2   N   0.611076099713115   0.388821209392463   0.123072827677655   1.0000000
N2   N   0.777740495006054   0.888876251558972   0.124930130528878   1.0000000
N2   N   0.944386923366143   0.388872337208936   0.125106275450741   1.0000000
N2   N   0.111046644412510   0.555543479420733   0.624786093096643   1.0000000
N2   N   0.277711160435345   0.055497706257667   0.624773250860867   1.0000000
N2   N   0.777688573303381   0.555510953318359   0.625185145298285   1.0000000
N2   N   0.611076797580116   0.055529934456878   0.624954501045909   1.0000000
N2   N   0.944397076753029   0.055525117259322   0.625021157070906   1.0000000
N2   N   0.055667385093856   0.111154161449948   0.375000000000000   1.0000000
N2   N   0.554777566639665   0.624744092026902   0.375000000000000   1.0000000
N2   N   0.386447109536431   0.103117679740250   0.375000000000000   1.0000000
N2   N   0.890222901229256   0.611778117281299   0.375000000000000   1.0000000
N2   N   0.723285683580976   0.110211249857629   0.375000000000000   1.0000000
N2   N   0.055579682883071   0.777792457494734   0.875000000000000   1.0000000
N2   N   0.388916546020604   0.777793020974280   0.875000000000000   1.0000000
N2   N   0.222253235615424   0.277793284474376   0.875000000000000   1.0000000
N2   N   0.722247355812012   0.777793007757161   0.875000000000000   1.0000000
N2   N   0.555576803015470   0.277783659349212   0.875000000000000   1.0000000
N2   N   0.888916005840418   0.277788893641099   0.875000000000000   1.0000000
N2   N   0.220607137820329   0.776970235576830   0.375000000000000   1.0000000
N2   N   0.055667385093856   0.277846556977244   0.375000000000000   1.0000000
N2   N   0.378388827997863   0.257314108206042   0.375000000000000   1.0000000
N2   N   0.555106383041271   0.783750310400051   0.375000000000000   1.0000000
N2   N   0.892282006492489   0.781355178104291   0.375000000000000   1.0000000
N2   N   0.724194063245111   0.274865865785844   0.375000000000000   1.0000000
N2   N   0.055579966536439   0.944460323083814   0.875000000000000   1.0000000
N2   N   0.388916546020604   0.944456858379652   0.875000000000000   1.0000000
N2   N   0.222250068062567   0.444457434773728   0.875000000000000   1.0000000
N2   N   0.555576129114634   0.444454731223978   0.875000000000000   1.0000000
N2   N   0.722246360012505   0.944458357122085   0.875000000000000   1.0000000
N2   N   0.888916328906395   0.444455309729848   0.875000000000000   1.0000000
N2   N   0.054904805341388   0.444818318642866   0.375000000000000   1.0000000
N2   N   0.220303545657747   0.941421650661967   0.375000000000000   1.0000000
N2   N   0.555152016419732   0.944242674876531   0.375000000000000   1.0000000
N2   N   0.378388827997863   0.454408053125157   0.375000000000000   1.0000000
N2   N   0.890200135421301   0.946295477504308   0.375000000000000   1.0000000
N2   N   0.730866326607839   0.443146721582600   0.375000000000000   1.0000000
N2   N   0.222246649964670   0.611121158254323   0.875000000000000   1.0000000
N2   N   0.055583388122577   0.111125484678236   0.875000000000000   1.0000000
N2   N   0.555576803015470   0.611126476999595   0.875000000000000   1.0000000
N2   N   0.388915900610740   0.111121453922112   0.875000000000000   1.0000000
N2   N   0.888915669884087   0.611124501608715   0.875000000000000   1.0000000
N2   N   0.055069734343664   0.611178888503614   0.375000000000000   1.0000000
N2   N   0.722246360012505   0.111121336223759   0.875000000000000   1.0000000
N2   N   0.217348146945001   0.104507199842600   0.375000000000000   1.0000000
N2   N   0.386447109536431   0.616662763129524   0.375000000000000   1.0000000
N2   N   0.730866326607839   0.621052938358575   0.375000000000000   1.0000000
N2   N   0.555106383041271   0.104689405974554   0.375000000000000   1.0000000
N2   N   0.388915900610740   0.611127780021971   0.875000000000000   1.0000000
N2   N   0.889916070892417   0.111624702112881   0.375000000000000   1.0000000
N2   N   0.222247529413578   0.777790431373456   0.875000000000000   1.0000000
N2   N   0.055583388122577   0.277791236777676   0.875000000000000   1.0000000
N2   N   0.388918187328376   0.277790153688677   0.875000000000000   1.0000000
N2   N   0.555580458254973   0.777793603123276   0.875000000000000   1.0000000
N2   N   0.888916328906395   0.777794352509881   0.875000000000000   1.0000000
N2   N   0.722247355812012   0.277787681388187   0.875000000000000   1.0000000
N2   N   0.055069734343664   0.777224179173387   0.375000000000000   1.0000000
N2   N   0.387190210201843   0.779097229539291   0.375000000000000   1.0000000
N2   N   0.221842554411895   0.277587943872612   0.375000000000000   1.0000000
N2   N   0.724194063245111   0.782661530792603   0.375000000000000   1.0000000
N2   N   0.554777566639665   0.263366807946097   0.375000000000000   1.0000000
N2   N   0.890200135421301   0.277237991250329   0.375000000000000   1.0000000
N2   N   0.055579966536439   0.444452976785962   0.875000000000000   1.0000000
N2   N   0.222246649964670   0.944458825043681   0.875000000000000   1.0000000
N2   N   0.555580222213929   0.944456777773629   0.875000000000000   1.0000000
N2   N   0.388918187328376   0.444461366973027   0.875000000000000   1.0000000
N2   N   0.888916005840418   0.944460445532663   0.875000000000000   1.0000000
N2   N   0.054904805341388   0.943419820031858   0.375000000000000   1.0000000
N2   N   0.722250647933392   0.444458340919289   0.875000000000000   1.0000000
N2   N   0.387190210201843   0.941426313995896   0.375000000000000   1.0000000
N2   N   0.217348146945001   0.446174280435742   0.375000000000000   1.0000000
N2   N   0.220303545657747   0.612215228329115   0.375000000000000   1.0000000
N2   N   0.723285683580976   0.946407767056682   0.375000000000000   1.0000000
N2   N   0.892282006492489   0.444260161721527   0.375000000000000   1.0000000
N2   N   0.055579682883071   0.611120558721664   0.875000000000000   1.0000000
N2   N   0.222250068062567   0.111125966622176   0.875000000000000   1.0000000
N2   N   0.722250647933392   0.611125640347438   0.875000000000000   1.0000000
N2   N   0.555580458254973   0.111120188465025   0.875000000000000   1.0000000
N2   N   0.888916488982434   0.111124911157885   0.875000000000000   1.0000000
B2   B   0.107938617487884   0.052622992325235   0.375000000000000   1.0000000
B2   B   0.622926094643023   0.587539804800983   0.375000000000000   1.0000000
B2   B   0.443883626092686   0.050325150037537   0.375000000000000   1.0000000
B2   B   0.945234010169141   0.555344749730083   0.375000000000000   1.0000000
B2   B   0.779358529942142   0.056345931637739   0.375000000000000   1.0000000
B2   B   0.111137277491854   0.722235305412589   0.875000000000000   1.0000000
B2   B   0.444478793330997   0.722263581147738   0.875000000000000   1.0000000
B2   B   0.277784338918316   0.222213231160151   0.875000000000000   1.0000000
B2   B   0.777815333579174   0.722256770701514   0.875000000000000   1.0000000
B2   B   0.611148665718402   0.222215837784155   0.875000000000000   1.0000000
B2   B   0.944453244087152   0.222221979419765   0.875000000000000   1.0000000
B2   B   0.276376504078075   0.722784317817959   0.375000000000000   1.0000000
B2   B   0.110193809713093   0.221763571523214   0.375000000000000   1.0000000
B2   B   0.442974516492750   0.211019168021669   0.375000000000000   1.0000000
B2   B   0.612861280112351   0.733369473727050   0.375000000000000   1.0000000
B2   B   0.945234010169141   0.723222593772394   0.375000000000000   1.0000000
B2   B   0.779780711430020   0.220422463427181   0.375000000000000   1.0000000
B2   B   0.111128565705910   0.888896538837054   0.875000000000000   1.0000000
B2   B   0.444479307660932   0.888906320497127   0.875000000000000   1.0000000
B2   B   0.277784338918316   0.388904441091494   0.875000000000000   1.0000000
B2   B   0.611148511871011   0.388899045644482   0.875000000000000   1.0000000
B2   B   0.777806462803405   0.888920752399988   0.875000000000000   1.0000000
B2   B   0.944463943126148   0.388887286899696   0.875000000000000   1.0000000
B2   B   0.107938617487884   0.388648958495977   0.375000000000000   1.0000000
B2   B   0.276376504078075   0.886925519593443   0.375000000000000   1.0000000
B2   B   0.612385992953782   0.892622449578119   0.375000000000000   1.0000000
B2   B   0.945606802040285   0.891009581270947   0.375000000000000   1.0000000
B2   B   0.783828990332408   0.386185465324073   0.375000000000000   1.0000000
B2   B   0.277795772998153   0.555584187722350   0.875000000000000   1.0000000
B2   B   0.111113015785340   0.055552971724051   0.875000000000000   1.0000000
B2   B   0.611148511871011   0.555582799559858   0.875000000000000   1.0000000
B2   B   0.444478793330997   0.055548545516594   0.875000000000000   1.0000000
B2   B   0.944477754024743   0.555566196721302   0.875000000000000   1.0000000
B2   B   0.109902447309192   0.555716451825360   0.375000000000000   1.0000000
B2   B   0.777801727966502   0.055567530649919   0.875000000000000   1.0000000
B2   B   0.275197815767828   0.050706036465609   0.375000000000000   1.0000000
B2   B   0.442974516492750   0.565288681804424   0.375000000000000   1.0000000
B2   B   0.781137456270104   0.557235394801724   0.375000000000000   1.0000000
B2   B   0.612385992953782   0.053096876708992   0.375000000000000   1.0000000
B2   B   0.444481817138766   0.555604247500674   0.875000000000000   1.0000000
B2   B   0.945132929999096   0.056560289619733   0.375000000000000   1.0000000
B2   B   0.277804978901139   0.722243543204747   0.875000000000000   1.0000000
B2   B   0.111102568244819   0.222217950789074   0.875000000000000   1.0000000
B2   B   0.444481817138766   0.222210902971420   0.875000000000000   1.0000000
B2   B   0.611148665718402   0.722266161267577   0.875000000000000   1.0000000
B2   B   0.944477754024743   0.722244890636775   0.875000000000000   1.0000000
B2   B   0.777806462803405   0.222219043736747   0.875000000000000   1.0000000
B2   B   0.110239093643114   0.721786213488221   0.375000000000000   1.0000000
B2   B   0.443883626092686   0.726891809388484   0.375000000000000   1.0000000
B2   B   0.269121647647086   0.212405832114345   0.375000000000000   1.0000000
B2   B   0.783828990332408   0.730976858341663   0.375000000000000   1.0000000
B2   B   0.612861280112351   0.212825139718630   0.375000000000000   1.0000000
B2   B   0.945132929999096   0.221905973712700   0.375000000000000   1.0000000
B2   B   0.111113015785340   0.388893377394619   0.875000000000000   1.0000000
B2   B   0.277804978901139   0.888894769029714   0.875000000000000   1.0000000
B2   B   0.611146436513123   0.888919927665316   0.875000000000000   1.0000000
B2   B   0.444489477259580   0.388911405296455   0.875000000000000   1.0000000
B2   B   0.944463943126148   0.888909989559775   0.875000000000000   1.0000000
B2   B   0.109902447309192   0.887519328817155   0.375000000000000   1.0000000
B2   B   0.777815333579174   0.388891896210990   0.875000000000000   1.0000000
B2   B   0.444066037354439   0.888699685343884   0.375000000000000   1.0000000
B2   B   0.269121647647086   0.390049148866077   0.375000000000000   1.0000000
B2   B   0.275197815767828   0.557825112635555   0.375000000000000   1.0000000
B2   B   0.622926094643023   0.368719623175368   0.375000000000000   1.0000000
B2   B   0.779780711430020   0.892691581336168   0.375000000000000   1.0000000
B2   B   0.945606802040285   0.387930554102672   0.375000000000000   1.0000000
B2   B   0.111128565705910   0.555565360202185   0.875000000000000   1.0000000
B2   B   0.277795772998153   0.055544918609146   0.875000000000000   1.0000000
B2   B   0.777818444955477   0.555575889144406   0.875000000000000   1.0000000
B2   B   0.611146436513123   0.055559842181135   0.875000000000000   1.0000000
B2   B   0.944453244087152   0.055564598000722   0.875000000000000   1.0000000
B2   B   0.055419067312273   0.111009249327759   0.124774343523486   1.0000000
B2   B   0.555562000021697   0.611179587475297   0.123730404134965   1.0000000
B2   B   0.388799041694383   0.110937031322560   0.124690160090140   1.0000000
B2   B   0.888889878165990   0.611111605749665   0.124860890237262   1.0000000
B2   B   0.722196713189424   0.111070200529798   0.124775021435448   1.0000000
B2   B   0.055514948731787   0.777735449755655   0.624995898866848   1.0000000
B2   B   0.388822708575082   0.777795306517076   0.625070831707885   1.0000000
B2   B   0.221993251063316   0.277663292198326   0.625500532225934   1.0000000
B2   B   0.722215807599362   0.777838554093898   0.625545894167529   1.0000000
B2   B   0.555562000021697   0.277715745879734   0.626269595865036   1.0000000
B2   B   0.888839274639210   0.277745891432727   0.625223287472023   1.0000000
B2   B   0.222155564454186   0.777744448893757   0.124973573028206   1.0000000
B2   B   0.055419067312273   0.277743151317849   0.124774343523486   1.0000000
B2   B   0.388717800277075   0.277520307305305   0.123846739040950   1.0000000
B2   B   0.555523109644834   0.777838381768146   0.124716616647622   1.0000000
B2   B   0.888876377176411   0.777783902170289   0.124774257371716   1.0000000
B2   B   0.722215807599362   0.277710586838805   0.124454105832471   1.0000000
B2   B   0.055461829147319   0.944342587664842   0.625086542826622   1.0000000
B2   B   0.388822708575082   0.944360735391348   0.625070831707885   1.0000000
B2   B   0.222038053307373   0.444482726843648   0.625212579687184   1.0000000
B2   B   0.555625338847502   0.444479336090416   0.626056027068295   1.0000000
B2   B   0.722196713189424   0.944459845992962   0.625224978564552   1.0000000
B2   B   0.888876377176411   0.444425808339458   0.625225742628285   1.0000000
B2   B   0.055461829147319   0.444452574815806   0.124913457173379   1.0000000
B2   B   0.222128060735753   0.944316438464233   0.124957082215179   1.0000000
B2   B   0.555518759827698   0.944426046580512   0.124879173653689   1.0000000
B2   B   0.388717800277075   0.444530826305105   0.123846739040950   1.0000000
B2   B   0.888839274639210   0.944426716539818   0.124776712527976   1.0000000
B2   B   0.722211812580152   0.444390530014986   0.123651591156971   1.0000000
B2   B   0.222128060735753   0.611144955604855   0.625042917784822   1.0000000
B2   B   0.055419067312273   0.111009249327759   0.625225656476513   1.0000000
B2   B   0.555562000021697   0.611179587475297   0.626269595865036   1.0000000
B2   B   0.388799041694383   0.110937031322560   0.625309839909853   1.0000000
B2   B   0.888889878165990   0.611111605749665   0.625139109762739   1.0000000
B2   B   0.055514948731787   0.611112832309467   0.125004101133153   1.0000000
B2   B   0.722196713189424   0.111070200529798   0.625224978564552   1.0000000
B2   B   0.222038053307373   0.110888659797061   0.124787420312815   1.0000000
B2   B   0.388799041694383   0.611195343705173   0.124690160090140   1.0000000
B2   B   0.722211812580152   0.611154615898509   0.123651591156971   1.0000000
B2   B   0.555523109644834   0.111018061210016   0.124716616647622   1.0000000
B2   B   0.388799041694383   0.611195343705173   0.625309839909853   1.0000000
B2   B   0.888825390976918   0.111079362155130   0.124765490015272   1.0000000
B2   B   0.222155564454186   0.777744448893757   0.625026426971794   1.0000000
B2   B   0.055419067312273   0.277743151317849   0.625225656476513   1.0000000
B2   B   0.388717800277075   0.277520307305305   0.626153260959051   1.0000000
B2   B   0.555523109644834   0.777838381768146   0.625283383352377   1.0000000
B2   B   0.888876377176411   0.777783902170289   0.625225742628285   1.0000000
B2   B   0.722215807599362   0.277710586838805   0.625545894167529   1.0000000
B2   B   0.055514948731787   0.777735449755655   0.125004101133153   1.0000000
B2   B   0.388822708575082   0.777795306517076   0.124929168292115   1.0000000
B2   B   0.221993251063316   0.277663292198326   0.124499467774066   1.0000000
B2   B   0.722215807599362   0.777838554093898   0.124454105832471   1.0000000
B2   B   0.555562000021697   0.277715745879734   0.123730404134965   1.0000000
B2   B   0.888839274639210   0.277745891432727   0.124776712527976   1.0000000
B2   B   0.055461829147319   0.444452574815806   0.625086542826622   1.0000000
B2   B   0.222128060735753   0.944316438464233   0.625042917784822   1.0000000
B2   B   0.555518759827698   0.944426046580512   0.625120826346311   1.0000000
B2   B   0.388717800277075   0.444530826305105   0.626153260959051   1.0000000
B2   B   0.888839274639210   0.944426716539818   0.625223287472023   1.0000000
B2   B   0.055461829147319   0.944342587664842   0.124913457173379   1.0000000
B2   B   0.722211812580152   0.444390530014986   0.626348408843036   1.0000000
B2   B   0.388822708575082   0.944360735391348   0.124929168292115   1.0000000
B2   B   0.222038053307373   0.444482726843648   0.124787420312815   1.0000000
B2   B   0.222128060735753   0.611144955604855   0.124957082215179   1.0000000
B2   B   0.555625338847502   0.444479336090416   0.123943972931706   1.0000000
B2   B   0.722196713189424   0.944459845992962   0.124775021435448   1.0000000
B2   B   0.888876377176411   0.444425808339458   0.124774257371716   1.0000000
B2   B   0.055514948731787   0.611112832309467   0.624995898866848   1.0000000
B2   B   0.222038053307373   0.110888659797061   0.625212579687184   1.0000000
B2   B   0.722211812580152   0.611154615898509   0.626348408843036   1.0000000
B2   B   0.555523109644834   0.111018061210016   0.625283383352377   1.0000000
B2   B   0.888825390976918   0.111079362155130   0.625234509984728   1.0000000


