data_1
_audit_creation_method   'vasp2cif'
_cell_length_a    17.52789999999977
_cell_length_b    17.52789999999977
_cell_length_c    15.0
_cell_angle_alpha    90.0
_cell_angle_beta    90.0
_cell_angle_gamma    119.99999999999916

_symmetry_space_group_name_H-M    'P 1'
loop_
_atom_site_label
_atom_site_type_symbol
_atom_site_fract_x
_atom_site_fract_y
_atom_site_fract_z
_atom_site_occupancy
B2   B   0.905049523002493   0.952640605035569   0.111022840844019   1.0000000
B2   B   0.904708398308462   0.095110058801048   0.111045347308675   1.0000000
B2   B   0.904653484626960   0.238114694782530   0.111045139840615   1.0000000
B2   B   0.904483010427434   0.380882858574612   0.111011100441624   1.0000000
B2   B   0.904454154376004   0.523716854879828   0.111005697213485   1.0000000
B2   B   0.905577839720745   0.666798858288194   0.111047672797105   1.0000000
B2   B   0.905638550657297   0.810125158767308   0.111043992337926   1.0000000
B2   B   0.048052485530070   0.952819063381241   0.111020931234903   1.0000000
B2   B   0.047920059774512   0.095581787265900   0.111021231152280   1.0000000
B2   B   0.047958633029627   0.238274437583005   0.111010071849249   1.0000000
B2   B   0.047708981350085   0.380834251358103   0.111025824726074   1.0000000
B2   B   0.047482914633748   0.523640223210685   0.111011830028413   1.0000000
B2   B   0.047752853957117   0.666690784633009   0.111029235148441   1.0000000
B2   B   0.047924257524294   0.809664032824191   0.111014085103906   1.0000000
B2   B   0.190351315380226   0.952326500518009   0.111009498866530   1.0000000
B2   B   0.190694124963511   0.095470158597709   0.111039600507543   1.0000000
B2   B   0.191115145121188   0.238556988541610   0.111035484569352   1.0000000
B2   B   0.191177055857426   0.381119449244267   0.111009354021427   1.0000000
B2   B   0.190432040539504   0.523650645449067   0.111054315274211   1.0000000
B2   B   0.189975861333906   0.666618357454696   0.111047414090993   1.0000000
B2   B   0.190458644052598   0.809616707556086   0.111002819840599   1.0000000
B2   B   0.333284011009327   0.952324167011800   0.111023089152923   1.0000000
B2   B   0.332827208970558   0.094392909303339   0.111065945957438   1.0000000
B2   B   0.333791713663636   0.237450739105945   0.111071510431926   1.0000000
B2   B   0.335210794003102   0.381511308690419   0.111048859374064   1.0000000
B2   B   0.334041364679431   0.524672183457330   0.111051421383538   1.0000000
B2   B   0.332067685700731   0.666901121635593   0.111064294211506   1.0000000
B2   B   0.333171895149372   0.809739257541385   0.111043257244260   1.0000000
B2   B   0.476196893748681   0.952627476591471   0.111019146674626   1.0000000
B2   B   0.476010922959012   0.095409069906272   0.111012054471963   1.0000000
B2   B   0.474667398430414   0.237217317775913   0.111012026566044   1.0000000
B2   B   0.473795221435161   0.666113156874360   0.110920063068226   1.0000000
B2   B   0.475907254092288   0.809664871319635   0.111051450445633   1.0000000
B2   B   0.618914680527451   0.952375197596054   0.111027944447692   1.0000000
B2   B   0.618985511482917   0.095219596391322   0.111013700947110   1.0000000
B2   B   0.618613402973114   0.237892700981365   0.111015847829485   1.0000000
B2   B   0.616756181236854   0.380167937264230   0.110996916546738   1.0000000
B2   B   0.619863160500481   0.666397542224264   0.110920709967091   1.0000000
B2   B   0.618398085246622   0.809046003157619   0.110997934868996   1.0000000
B2   B   0.761722819965759   0.952232806827010   0.111021450793706   1.0000000
B2   B   0.761825012058800   0.095180118855147   0.111053800158324   1.0000000
B2   B   0.761712949828025   0.238117665516087   0.111053628724023   1.0000000
B2   B   0.761019431633861   0.380859824354243   0.111024321983262   1.0000000
B2   B   0.761333070638458   0.524761745380599   0.111006581960692   1.0000000
B2   B   0.764683635593258   0.667257454369998   0.111041431655563   1.0000000
B2   B   0.762152850702437   0.809815256995430   0.111008441090084   1.0000000
C2   C   0.476401966460991   0.380116592933421   0.111139520373118   1.0000000
C2   C   0.476606273210921   0.523723410610081   0.111063547630735   1.0000000
C2   C   0.515915333543365   0.469112630838983   0.111315286613816   1.0000000
C2   C   0.520723804641801   0.613880682485684   0.110721745004114   1.0000000
N2   N   0.953087970842433   0.905421036521932   0.111015320480773   1.0000000
N2   N   0.952826197811746   0.047978722760381   0.111012280607464   1.0000000
N2   N   0.952600883961010   0.190604197807895   0.111016983070012   1.0000000
N2   N   0.952389759808449   0.333362672779569   0.111012104360547   1.0000000
N2   N   0.952125124008443   0.476013168927399   0.110983099168879   1.0000000
N2   N   0.952737419954821   0.618925909102465   0.111011881300222   1.0000000
N2   N   0.953025302841436   0.762162966087169   0.111029160794443   1.0000000
N2   N   0.095450539344480   0.905005232411455   0.110993870372312   1.0000000
N2   N   0.095759976050099   0.048194239052600   0.111006530733446   1.0000000
N2   N   0.096002604263733   0.190992202750340   0.111000058451661   1.0000000
N2   N   0.095891910158005   0.333491895983830   0.110996235926913   1.0000000
N2   N   0.095225071837058   0.475966560583253   0.111014317207758   1.0000000
N2   N   0.094990258345203   0.618850295670189   0.111015799818201   1.0000000
N2   N   0.095393850440049   0.761975387586550   0.110997063061828   1.0000000
N2   N   0.238133580033948   0.904965192694764   0.110988220512558   1.0000000
N2   N   0.237981780856656   0.047631801121740   0.111027909006460   1.0000000
N2   N   0.238953571926965   0.191237017743284   0.111033210105437   1.0000000
N2   N   0.239918386012146   0.334012697012029   0.111005184365271   1.0000000
N2   N   0.238675546318375   0.475998652699628   0.111026091886738   1.0000000
N2   N   0.237187265311455   0.618800689500253   0.111038037952378   1.0000000
N2   N   0.237900869077332   0.761940890206345   0.111010249537369   1.0000000
N2   N   0.380914566322574   0.905017028788277   0.111013572609462   1.0000000
N2   N   0.380850401018882   0.047576723803262   0.111021651294220   1.0000000
N2   N   0.380248182675862   0.189577411819408   0.111040461563975   1.0000000
N2   N   0.383466931910088   0.333392841791326   0.111063143542421   1.0000000
N2   N   0.383090769165851   0.476490539471461   0.111043846662629   1.0000000
N2   N   0.378887952101327   0.618932734733665   0.111032048417000   1.0000000
N2   N   0.380411262592357   0.762062555474312   0.111032803632841   1.0000000
N2   N   0.523633108175961   0.905069067615803   0.111018152009178   1.0000000
N2   N   0.523716716408045   0.048015896101248   0.110995472689247   1.0000000
N2   N   0.523252980834038   0.190847882446731   0.110988073038091   1.0000000
N2   N   0.520451029072214   0.332752072462619   0.111006837743471   1.0000000
N2   N   0.522851731710753   0.761897119693326   0.110997763733810   1.0000000
N2   N   0.666447563795682   0.904751383420444   0.111001951820261   1.0000000
N2   N   0.666581814999561   0.047722445451500   0.111013867611983   1.0000000
N2   N   0.666398014576388   0.190495256104908   0.111020981843178   1.0000000
N2   N   0.665264976417998   0.332676404151512   0.110996415279079   1.0000000
N2   N   0.667375940358644   0.471636986938287   0.110957578846359   1.0000000
N2   N   0.673142438004781   0.628797242430056   0.111011159279826   1.0000000
N2   N   0.667175461940446   0.762795533572959   0.110981647620390   1.0000000
N2   N   0.809960525873364   0.905258368056142   0.110999778014698   1.0000000
N2   N   0.809469422330192   0.047630666414869   0.111025675174170   1.0000000
N2   N   0.809375920501877   0.190503847369204   0.111039058514500   1.0000000
N2   N   0.809047306546837   0.333331289110584   0.111021724915930   1.0000000
N2   N   0.808806863833164   0.475931463193177   0.110999224709058   1.0000000
N2   N   0.810974269259990   0.619253923189305   0.111005661900146   1.0000000
N2   N   0.810948453225273   0.763150553775909   0.111017621813344   1.0000000


