data_1
_audit_creation_method   'vasp2cif'
_cell_length_a    14.93631414619966
_cell_length_b    14.936314146199727
_cell_length_c    13.341276283792837
_cell_angle_alpha    90.0
_cell_angle_beta    90.0
_cell_angle_gamma    119.99999999999984

_symmetry_space_group_name_H-M    'P 1'
loop_
_atom_site_label
_atom_site_type_symbol
_atom_site_fract_x
_atom_site_fract_y
_atom_site_fract_z
_atom_site_occupancy
Ge2   Ge   0.555555555555557   0.444444444444443   0.375000000000000   1.0000000
N2   N   0.111097151203102   0.055551471469698   0.125151513194533   1.0000000
N2   N   0.611180812995281   0.555694959323852   0.121175998702891   1.0000000
N2   N   0.444452998564039   0.055568468029832   0.125082626969343   1.0000000
N2   N   0.944431531970204   0.555547001435814   0.125082626969343   1.0000000
N2   N   0.777786334188062   0.055559833760713   0.125039524479407   1.0000000
N2   N   0.111105531302673   0.722219432317963   0.624855343967985   1.0000000
N2   N   0.444452998564039   0.722217863867581   0.624917373030628   1.0000000
N2   N   0.277740648708113   0.222207691894748   0.625742929821655   1.0000000
N2   N   0.777792308105172   0.722259351291961   0.625742929821655   1.0000000
N2   N   0.611133709853407   0.222207691894748   0.625742929821655   1.0000000
N2   N   0.944440166239330   0.222213665811944   0.624960475520610   1.0000000
N2   N   0.277780567681978   0.722219432317963   0.125144656031975   1.0000000
N2   N   0.111076669862902   0.222205001598101   0.124900832639308   1.0000000
N2   N   0.444455293079539   0.222243919492415   0.123860043223747   1.0000000
N2   N   0.611133709853407   0.722259351291961   0.124257070178277   1.0000000
N2   N   0.944431531970204   0.722217863867581   0.125082626969343   1.0000000
N2   N   0.777794998401852   0.222205001598101   0.124900832639308   1.0000000
N2   N   0.111108201184108   0.888891798816013   0.624781641463486   1.0000000
N2   N   0.444450264298485   0.888891798816013   0.624781641463486   1.0000000
N2   N   0.277740648708113   0.388866290146638   0.625742929821655   1.0000000
N2   N   0.611180812995281   0.388819187004738   0.628824001297090   1.0000000
N2   N   0.777794998401852   0.888923330137101   0.625099167360719   1.0000000
N2   N   0.944448528530339   0.388879013066718   0.624848486805445   1.0000000
N2   N   0.111097151203102   0.388879013066718   0.125151513194533   1.0000000
N2   N   0.277780567681978   0.888894468697292   0.125144656031975   1.0000000
N2   N   0.611120986933277   0.888902848796908   0.125151513194533   1.0000000
N2   N   0.444305040676122   0.388819187004738   0.121175998702891   1.0000000
N2   N   0.944448528530339   0.888902848796908   0.125151513194533   1.0000000
N2   N   0.777792308105172   0.388866290146638   0.124257070178277   1.0000000
N2   N   0.277782136132443   0.555547001435814   0.624917373030628   1.0000000
N2   N   0.111097151203102   0.055551471469698   0.624848486805445   1.0000000
N2   N   0.611180812995281   0.555694959323852   0.628824001297090   1.0000000
N2   N   0.444452998564039   0.055568468029832   0.624917373030628   1.0000000
N2   N   0.944431531970204   0.555547001435814   0.624917373030628   1.0000000
N2   N   0.111108201184108   0.555549735701623   0.125218358536515   1.0000000
N2   N   0.777786334188062   0.055559833760713   0.624960475520610   1.0000000
N2   N   0.277782136132443   0.055568468029832   0.125082626969343   1.0000000
N2   N   0.444455293079539   0.555544706920454   0.123860043223747   1.0000000
N2   N   0.777756080507594   0.555544706920454   0.123860043223747   1.0000000
N2   N   0.611120986933277   0.055551471469698   0.125151513194533   1.0000000
N2   N   0.444455293079539   0.555544706920454   0.626139956776206   1.0000000
N2   N   0.944440166239330   0.055559833760713   0.125039524479407   1.0000000
N2   N   0.277780567681978   0.722219432317963   0.624855343967985   1.0000000
N2   N   0.111076669862902   0.222205001598101   0.625099167360719   1.0000000
N2   N   0.444455293079539   0.222243919492415   0.626139956776206   1.0000000
N2   N   0.611133709853407   0.722259351291961   0.625742929821655   1.0000000
N2   N   0.944431531970204   0.722217863867581   0.624917373030628   1.0000000
N2   N   0.777794998401852   0.222205001598101   0.625099167360719   1.0000000
N2   N   0.111105531302673   0.722219432317963   0.125144656031975   1.0000000
N2   N   0.444452998564039   0.722217863867581   0.125082626969343   1.0000000
N2   N   0.277740648708113   0.222207691894748   0.124257070178277   1.0000000
N2   N   0.777792308105172   0.722259351291961   0.124257070178277   1.0000000
N2   N   0.611133709853407   0.222207691894748   0.124257070178277   1.0000000
N2   N   0.944440166239330   0.222213665811944   0.125039524479407   1.0000000
N2   N   0.111097151203102   0.388879013066718   0.624848486805445   1.0000000
N2   N   0.277780567681978   0.888894468697292   0.624855343967985   1.0000000
N2   N   0.611120986933277   0.888902848796908   0.624848486805445   1.0000000
N2   N   0.444305040676122   0.388819187004738   0.628824001297090   1.0000000
N2   N   0.944448528530339   0.888902848796908   0.624848486805445   1.0000000
N2   N   0.111108201184108   0.888891798816013   0.125218358536515   1.0000000
N2   N   0.777792308105172   0.388866290146638   0.625742929821655   1.0000000
N2   N   0.444450264298485   0.888891798816013   0.125218358536515   1.0000000
N2   N   0.277740648708113   0.388866290146638   0.124257070178277   1.0000000
N2   N   0.277782136132443   0.555547001435814   0.125082626969343   1.0000000
N2   N   0.611180812995281   0.388819187004738   0.121175998702891   1.0000000
N2   N   0.777794998401852   0.888923330137101   0.124900832639308   1.0000000
N2   N   0.944448528530339   0.388879013066718   0.125151513194533   1.0000000
N2   N   0.111108201184108   0.555549735701623   0.624781641463486   1.0000000
N2   N   0.277782136132443   0.055568468029832   0.624917373030628   1.0000000
N2   N   0.777756080507594   0.555544706920454   0.626139956776206   1.0000000
N2   N   0.611120986933277   0.055551471469698   0.624848486805445   1.0000000
N2   N   0.944440166239330   0.055559833760713   0.624960475520610   1.0000000
N2   N   0.054471225371611   0.110394152521751   0.375000000000000   1.0000000
N2   N   0.555199504868067   0.620480784537114   0.375000000000000   1.0000000
N2   N   0.387495242950983   0.108323819235339   0.375000000000000   1.0000000
N2   N   0.891676180764684   0.612504757048996   0.375000000000000   1.0000000
N2   N   0.722589593816888   0.110394152521751   0.375000000000000   1.0000000
N2   N   0.055560861809013   0.777780242674679   0.875000000000000   1.0000000
N2   N   0.388886047532263   0.777780242674679   0.875000000000000   1.0000000
N2   N   0.222222279653268   0.277777806493272   0.875000000000000   1.0000000
N2   N   0.722222193506644   0.777777720346800   0.875000000000000   1.0000000
N2   N   0.555545507652003   0.277761906286173   0.875000000000000   1.0000000
N2   N   0.888891396797471   0.277781966400737   0.875000000000000   1.0000000
N2   N   0.222222222222221   0.777777777777779   0.375000000000000   1.0000000
N2   N   0.054471225371611   0.277410406183194   0.375000000000000   1.0000000
N2   N   0.379519215462932   0.268052053664334   0.375000000000000   1.0000000
N2   N   0.555075282566487   0.781520878697749   0.375000000000000   1.0000000
N2   N   0.893112262797868   0.781520878697749   0.375000000000000   1.0000000
N2   N   0.723948187294551   0.276051812705474   0.375000000000000   1.0000000
N2   N   0.055557710623334   0.944442289376695   0.875000000000000   1.0000000
N2   N   0.388886047532263   0.944439138190915   0.875000000000000   1.0000000
N2   N   0.222219895914442   0.444451160429765   0.875000000000000   1.0000000
N2   N   0.555555555555557   0.444444444444443   0.875000000000000   1.0000000
N2   N   0.722218033599264   0.944442763730044   0.875000000000000   1.0000000
N2   N   0.888897931181964   0.444451160429765   0.875000000000000   1.0000000
N2   N   0.055755004239279   0.444843341811930   0.375000000000000   1.0000000
N2   N   0.221791782148478   0.943341247434043   0.375000000000000   1.0000000
N2   N   0.555156658188129   0.944244995760657   0.375000000000000   1.0000000
N2   N   0.379519215462932   0.444800495131919   0.375000000000000   1.0000000
N2   N   0.889605847478264   0.945528774628330   0.375000000000000   1.0000000
N2   N   0.731947946335622   0.444800495131919   0.375000000000000   1.0000000
N2   N   0.222219757325367   0.611113952467794   0.875000000000000   1.0000000
N2   N   0.055557236269991   0.111108603202598   0.875000000000000   1.0000000
N2   N   0.555545507652003   0.611116934699066   0.875000000000000   1.0000000
N2   N   0.388881297957849   0.111095929249038   0.875000000000000   1.0000000
N2   N   0.888904070750958   0.611118702042140   0.875000000000000   1.0000000
N2   N   0.056658752565890   0.611783868047641   0.375000000000000   1.0000000
N2   N   0.722218033599264   0.111108603202598   0.875000000000000   1.0000000
N2   N   0.218479121302244   0.106887737202118   0.375000000000000   1.0000000
N2   N   0.387495242950983   0.612504757048996   0.375000000000000   1.0000000
N2   N   0.731947946335622   0.620480784537114   0.375000000000000   1.0000000
N2   N   0.555075282566487   0.106887737202111   0.375000000000000   1.0000000
N2   N   0.388881297957849   0.611118702042140   0.875000000000000   1.0000000
N2   N   0.888888888888886   0.111111111111114   0.375000000000000   1.0000000
N2   N   0.222222222222221   0.777777777777779   0.875000000000000   1.0000000
N2   N   0.055557236269991   0.277781966400737   0.875000000000000   1.0000000
N2   N   0.388883065300932   0.277761906286173   0.875000000000000   1.0000000
N2   N   0.555548839570175   0.777780104085544   0.875000000000000   1.0000000
N2   N   0.888897931181964   0.777780104085544   0.875000000000000   1.0000000
N2   N   0.722222193506644   0.277777806493272   0.875000000000000   1.0000000
N2   N   0.056658752565890   0.778208217851591   0.375000000000000   1.0000000
N2   N   0.388216131952294   0.778208217851591   0.375000000000000   1.0000000
N2   N   0.218770292077580   0.276051812705474   0.375000000000000   1.0000000
N2   N   0.723948187294551   0.781229707922387   0.375000000000000   1.0000000
N2   N   0.555199504868067   0.268052053664334   0.375000000000000   1.0000000
N2   N   0.889605847478264   0.277410406183194   0.375000000000000   1.0000000
N2   N   0.055557710623334   0.444448754580019   0.875000000000000   1.0000000
N2   N   0.222219757325367   0.944439138190915   0.875000000000000   1.0000000
N2   N   0.555551245419973   0.944442289376695   0.875000000000000   1.0000000
N2   N   0.388883065300932   0.444454492348109   0.875000000000000   1.0000000
N2   N   0.888891396797471   0.944442763730044   0.875000000000000   1.0000000
N2   N   0.055755004239279   0.944244995760657   0.375000000000000   1.0000000
N2   N   0.722238093713857   0.444454492348109   0.875000000000000   1.0000000
N2   N   0.388216131952294   0.943341247434043   0.375000000000000   1.0000000
N2   N   0.218479121302244   0.444924717433452   0.375000000000000   1.0000000
N2   N   0.221791782148478   0.611783868047641   0.375000000000000   1.0000000
N2   N   0.722589593816888   0.945528774628330   0.375000000000000   1.0000000
N2   N   0.893112262797868   0.444924717433452   0.375000000000000   1.0000000
N2   N   0.055560861809013   0.611113952467794   0.875000000000000   1.0000000
N2   N   0.222219895914442   0.111102068818041   0.875000000000000   1.0000000
N2   N   0.722238093713857   0.611116934699066   0.875000000000000   1.0000000
N2   N   0.555548839570175   0.111102068818041   0.875000000000000   1.0000000
N2   N   0.888888888888886   0.111111111111114   0.875000000000000   1.0000000
B2   B   0.108925437314981   0.053869674483497   0.375000000000000   1.0000000
B2   B   0.624688928056045   0.582711189445276   0.375000000000000   1.0000000
B2   B   0.443881245470241   0.053572086474968   0.375000000000000   1.0000000
B2   B   0.946427913525074   0.556118754529789   0.375000000000000   1.0000000
B2   B   0.778285793518537   0.055809563425902   0.375000000000000   1.0000000
B2   B   0.111109274471112   0.722221303902241   0.875000000000000   1.0000000
B2   B   0.444443018937311   0.722213813771342   0.875000000000000   1.0000000
B2   B   0.277807845884141   0.222238978062501   0.875000000000000   1.0000000
B2   B   0.777761021937529   0.722192154115944   0.875000000000000   1.0000000
B2   B   0.611097798844990   0.222238978062501   0.875000000000000   1.0000000
B2   B   0.944446426184333   0.222226185702155   0.875000000000000   1.0000000
B2   B   0.277471743245032   0.722528256754938   0.375000000000000   1.0000000
B2   B   0.108761430935335   0.221047382134343   0.375000000000000   1.0000000
B2   B   0.442587660527919   0.218508654389164   0.375000000000000   1.0000000
B2   B   0.612192570681419   0.729601959639694   0.375000000000000   1.0000000
B2   B   0.946427913525074   0.723642492328531   0.375000000000000   1.0000000
B2   B   0.778952617865649   0.221047382134343   0.375000000000000   1.0000000
B2   B   0.111111371359772   0.888888628640221   0.875000000000000   1.0000000
B2   B   0.444443923947121   0.888888628640221   0.875000000000000   1.0000000
B2   B   0.277807845884141   0.388902201154925   0.875000000000000   1.0000000
B2   B   0.611090830943654   0.388909169056341   0.875000000000000   1.0000000
B2   B   0.777769885274223   0.888873103881699   0.875000000000000   1.0000000
B2   B   0.944440406060029   0.388894660158453   0.875000000000000   1.0000000
B2   B   0.108925437314981   0.388389096164756   0.375000000000000   1.0000000
B2   B   0.277471743245032   0.888276819823385   0.375000000000000   1.0000000
B2   B   0.611610903835155   0.891074562684996   0.375000000000000   1.0000000
B2   B   0.417288810554713   0.375311071944030   0.375000000000000   1.0000000
B2   B   0.946130325516621   0.891074562684996   0.375000000000000   1.0000000
B2   B   0.784076055625191   0.387807429318628   0.375000000000000   1.0000000
B2   B   0.277786186228587   0.555556981062796   0.875000000000000   1.0000000
B2   B   0.111120920765074   0.055559593939956   0.875000000000000   1.0000000
B2   B   0.611090830943654   0.555514995220639   0.875000000000000   1.0000000
B2   B   0.444443018937311   0.055562538499276   0.875000000000000   1.0000000
B2   B   0.944437461500692   0.555556981062796   0.875000000000000   1.0000000
B2   B   0.111256053264959   0.555845439863261   0.375000000000000   1.0000000
B2   B   0.777773814297847   0.055553573815591   0.875000000000000   1.0000000
B2   B   0.276357507671391   0.053572086474961   0.375000000000000   1.0000000
B2   B   0.442587660527919   0.557412339472143   0.375000000000000   1.0000000
B2   B   0.781491345610818   0.557412339472143   0.375000000000000   1.0000000
B2   B   0.611610903835155   0.053869674483497   0.375000000000000   1.0000000
B2   B   0.444454707270872   0.555545292729088   0.875000000000000   1.0000000
B2   B   0.944190436574081   0.055809563425902   0.375000000000000   1.0000000
B2   B   0.277778696097783   0.722221303902241   0.875000000000000   1.0000000
B2   B   0.111126896118357   0.222230114725861   0.875000000000000   1.0000000
B2   B   0.444454707270872   0.222242747875115   0.875000000000000   1.0000000
B2   B   0.611097798844990   0.722192154115944   0.875000000000000   1.0000000
B2   B   0.944437461500692   0.722213813771342   0.875000000000000   1.0000000
B2   B   0.777769885274223   0.222230114725861   0.875000000000000   1.0000000
B2   B   0.111723180176519   0.722528256754938   0.375000000000000   1.0000000
B2   B   0.443881245470241   0.723642492328531   0.375000000000000   1.0000000
B2   B   0.270398040360201   0.215923944374909   0.375000000000000   1.0000000
B2   B   0.784076055625191   0.729601959639694   0.375000000000000   1.0000000
B2   B   0.612192570681419   0.215923944374909   0.375000000000000   1.0000000
B2   B   0.944190436574081   0.221714206481554   0.375000000000000   1.0000000
B2   B   0.111120920765074   0.388894660158453   0.875000000000000   1.0000000
B2   B   0.277778696097783   0.888890725528902   0.875000000000000   1.0000000
B2   B   0.611105339841498   0.888879079234957   0.875000000000000   1.0000000
B2   B   0.444485004779345   0.388909169056341   0.875000000000000   1.0000000
B2   B   0.944440406060029   0.888879079234957   0.875000000000000   1.0000000
B2   B   0.111256053264959   0.888743946735057   0.375000000000000   1.0000000
B2   B   0.777761021937529   0.388902201154925   0.875000000000000   1.0000000
B2   B   0.444154560136759   0.888743946735057   0.375000000000000   1.0000000
B2   B   0.270398040360201   0.387807429318628   0.375000000000000   1.0000000
B2   B   0.276357507671391   0.556118754529789   0.375000000000000   1.0000000
B2   B   0.624688928056045   0.375311071944030   0.375000000000000   1.0000000
B2   B   0.778952617865649   0.891238569064701   0.375000000000000   1.0000000
B2   B   0.946130325516621   0.388389096164756   0.375000000000000   1.0000000
B2   B   0.111111371359772   0.555556076052825   0.875000000000000   1.0000000
B2   B   0.277786186228587   0.055562538499276   0.875000000000000   1.0000000
B2   B   0.777757252124914   0.555545292729088   0.875000000000000   1.0000000
B2   B   0.611105339841498   0.055559593939956   0.875000000000000   1.0000000
B2   B   0.944446426184333   0.055553573815591   0.875000000000000   1.0000000
B2   B   0.055543621334493   0.111114000727995   0.124997770346695   1.0000000
B2   B   0.555623533465850   0.611050564611325   0.123022400789808   1.0000000
B2   B   0.388937554663235   0.111208442659760   0.124710629775999   1.0000000
B2   B   0.888791557340195   0.611062445336788   0.124710629775999   1.0000000
B2   B   0.722237046060080   0.111114000727995   0.124997770346695   1.0000000
B2   B   0.055526744346492   0.777768113400524   0.624884046842188   1.0000000
B2   B   0.388908035720726   0.777768113400524   0.624884046842188   1.0000000
B2   B   0.222220049259083   0.277776691296216   0.625619413397095   1.0000000
B2   B   0.722223308703810   0.777779950740903   0.625619413397095   1.0000000
B2   B   0.555623533465850   0.277906302187880   0.626977599210144   1.0000000
B2   B   0.888885999271903   0.277762953939762   0.625002229653339   1.0000000
B2   B   0.222222222222221   0.777777777777779   0.125071469555858   1.0000000
B2   B   0.055543621334493   0.277762953939762   0.124997770346695   1.0000000
B2   B   0.388949435388640   0.277906302187880   0.123022400789808   1.0000000
B2   B   0.555584119879231   0.777769861011542   0.124831839248299   1.0000000
B2   B   0.888852407798962   0.777769861011542   0.124831839248299   1.0000000
B2   B   0.722223308703810   0.277776691296216   0.124380586602877   1.0000000
B2   B   0.055546191295804   0.944453808704123   0.624843896868373   1.0000000
B2   B   0.388908035720726   0.944473255653496   0.624884046842188   1.0000000
B2   B   0.222230138988442   0.444415880120784   0.625168160751687   1.0000000
B2   B   0.555555555555557   0.444444444444443   0.627162033116237   1.0000000
B2   B   0.722237046060080   0.944456378665555   0.625002229653339   1.0000000
B2   B   0.888852407798962   0.444415880120784   0.625168160751687   1.0000000
B2   B   0.055546191295804   0.444425715924916   0.125156103131592   1.0000000
B2   B   0.222231886599451   0.944473255653496   0.125115953157820   1.0000000
B2   B   0.555574284075043   0.944453808704123   0.125156103131592   1.0000000
B2   B   0.388949435388640   0.444376466534096   0.123022400789808   1.0000000
B2   B   0.888885999271903   0.944456378665555   0.124997770346695   1.0000000
B2   B   0.722093697812105   0.444376466534096   0.123022400789808   1.0000000
B2   B   0.222231886599451   0.611091964279275   0.624884046842188   1.0000000
B2   B   0.055543621334493   0.111114000727995   0.625002229653339   1.0000000
B2   B   0.555623533465850   0.611050564611325   0.626977599210144   1.0000000
B2   B   0.388937554663235   0.111208442659760   0.625289370223916   1.0000000
B2   B   0.888791557340195   0.611062445336788   0.625289370223916   1.0000000
B2   B   0.055526744346492   0.611091964279275   0.125115953157820   1.0000000
B2   B   0.722237046060080   0.111114000727995   0.625002229653339   1.0000000
B2   B   0.222230138988442   0.111147592201002   0.124831839248299   1.0000000
B2   B   0.388937554663235   0.611062445336788   0.124710629775999   1.0000000
B2   B   0.722093697812105   0.611050564611325   0.123022400789808   1.0000000
B2   B   0.555584119879231   0.111147592201002   0.124831839248299   1.0000000
B2   B   0.388937554663235   0.611062445336788   0.625289370223916   1.0000000
B2   B   0.888888888888886   0.111111111111114   0.124997321761729   1.0000000
B2   B   0.222222222222221   0.777777777777779   0.624928530444094   1.0000000
B2   B   0.055543621334493   0.277762953939762   0.625002229653339   1.0000000
B2   B   0.388949435388640   0.277906302187880   0.626977599210144   1.0000000
B2   B   0.555584119879231   0.777769861011542   0.625168160751687   1.0000000
B2   B   0.888852407798962   0.777769861011542   0.625168160751687   1.0000000
B2   B   0.722223308703810   0.277776691296216   0.625619413397095   1.0000000
B2   B   0.055526744346492   0.777768113400524   0.125115953157820   1.0000000
B2   B   0.388908035720726   0.777768113400524   0.125115953157820   1.0000000
B2   B   0.222220049259083   0.277776691296216   0.124380586602877   1.0000000
B2   B   0.722223308703810   0.777779950740903   0.124380586602877   1.0000000
B2   B   0.555623533465850   0.277906302187880   0.123022400789808   1.0000000
B2   B   0.888885999271903   0.277762953939762   0.124997770346695   1.0000000
B2   B   0.055546191295804   0.444425715924916   0.624843896868373   1.0000000
B2   B   0.222231886599451   0.944473255653496   0.624884046842188   1.0000000
B2   B   0.555574284075043   0.944453808704123   0.624843896868373   1.0000000
B2   B   0.388949435388640   0.444376466534096   0.626977599210144   1.0000000
B2   B   0.888885999271903   0.944456378665555   0.625002229653339   1.0000000
B2   B   0.055546191295804   0.944453808704123   0.125156103131592   1.0000000
B2   B   0.722093697812105   0.444376466534096   0.626977599210144   1.0000000
B2   B   0.388908035720726   0.944473255653496   0.125115953157820   1.0000000
B2   B   0.222230138988442   0.444415880120784   0.124831839248299   1.0000000
B2   B   0.222231886599451   0.611091964279275   0.125115953157820   1.0000000
B2   B   0.555555555555557   0.444444444444443   0.122837966883831   1.0000000
B2   B   0.722237046060080   0.944456378665555   0.124997770346695   1.0000000
B2   B   0.888852407798962   0.444415880120784   0.124831839248299   1.0000000
B2   B   0.055526744346492   0.611091964279275   0.624884046842188   1.0000000
B2   B   0.222230138988442   0.111147592201002   0.625168160751687   1.0000000
B2   B   0.722093697812105   0.611050564611325   0.626977599210144   1.0000000
B2   B   0.555584119879231   0.111147592201002   0.625168160751687   1.0000000
B2   B   0.888888888888886   0.111111111111114   0.625002678238243   1.0000000


