data_1
_audit_creation_method   'vasp2cif'
_cell_length_a    17.52789999999977
_cell_length_b    17.52789999999977
_cell_length_c    15.0
_cell_angle_alpha    90.0
_cell_angle_beta    90.0
_cell_angle_gamma    119.99999999999916

_symmetry_space_group_name_H-M    'P 1'
loop_
_atom_site_label
_atom_site_type_symbol
_atom_site_fract_x
_atom_site_fract_y
_atom_site_fract_z
_atom_site_occupancy
B2   B   0.907097965279669   0.953778023184219   0.111009058099208   1.0000000
B2   B   0.903481875325911   0.093870322176114   0.111115816129324   1.0000000
B2   B   0.902576516772772   0.236257973044391   0.111093167889033   1.0000000
B2   B   0.903252212102013   0.379746864503927   0.111003480994865   1.0000000
B2   B   0.906043218200034   0.523949095278614   0.111043114759823   1.0000000
B2   B   0.909749056197610   0.668609446139957   0.111018247129254   1.0000000
B2   B   0.910777452123412   0.813182565247830   0.110994743225854   1.0000000
B2   B   0.050329361811753   0.954171174559101   0.110936911959873   1.0000000
B2   B   0.047720887243189   0.095473255426933   0.110975014113245   1.0000000
B2   B   0.044966513668075   0.236379064052232   0.110972343833165   1.0000000
B2   B   0.044455903638005   0.379266986764530   0.110923318892739   1.0000000
B2   B   0.045903071133816   0.523291778173951   0.110956716824947   1.0000000
B2   B   0.049100013255579   0.667484498819498   0.111040814210063   1.0000000
B2   B   0.050894303136484   0.811330439233287   0.111023922891119   1.0000000
B2   B   0.192451786777820   0.953664433578882   0.110981093700337   1.0000000
B2   B   0.190749461534527   0.095591096188366   0.111001436258229   1.0000000
B2   B   0.188558616845245   0.237626219377268   0.111002051183682   1.0000000
B2   B   0.185648034541420   0.378553315124783   0.110942789625984   1.0000000
B2   B   0.185472465216025   0.522773138357036   0.110979645661848   1.0000000
B2   B   0.188978982227738   0.666738843386024   0.111035838197458   1.0000000
B2   B   0.191923629338709   0.810392121950077   0.111015329459813   1.0000000
B2   B   0.334412209585957   0.952657624109193   0.111021236786343   1.0000000
B2   B   0.334309273805364   0.096181846562844   0.111075005895208   1.0000000
B2   B   0.330816164532174   0.237250626701057   0.111053022418585   1.0000000
B2   B   0.329459205323170   0.380207531914443   0.110925127170847   1.0000000
B2   B   0.322966449204402   0.521744772540982   0.111005621438062   1.0000000
B2   B   0.328732718680863   0.666059357175091   0.111061172074864   1.0000000
B2   B   0.333436166760811   0.809186660118995   0.111051130874522   1.0000000
B2   B   0.476236519368645   0.949668306769401   0.110995047439370   1.0000000
B2   B   0.476578541542210   0.094244044401803   0.111024213080099   1.0000000
B2   B   0.476884074105670   0.238199945504701   0.111029364026507   1.0000000
B2   B   0.469401049733559   0.374138952921375   0.111165562682931   1.0000000
B2   B   0.462594718106820   0.547910571560837   0.110932204755124   1.0000000
B2   B   0.466419054760658   0.653752091070309   0.111005730794612   1.0000000
B2   B   0.475198328125015   0.803663145613165   0.111014783169156   1.0000000
B2   B   0.617961399852899   0.948988819182667   0.111071496385797   1.0000000
B2   B   0.618347637524326   0.093179247498951   0.111059005597917   1.0000000
B2   B   0.618796474414729   0.237225705087143   0.110966181895721   1.0000000
B2   B   0.619597741092936   0.381181174417137   0.110921179670507   1.0000000
B2   B   0.636657515080699   0.535274447304018   0.110913478914888   1.0000000
B2   B   0.633866995059980   0.672417219890667   0.111101268758822   1.0000000
B2   B   0.618258968397949   0.804978460203308   0.111063368235892   1.0000000
B2   B   0.761300636897844   0.950510538417852   0.111136678406055   1.0000000
B2   B   0.760385722681663   0.093031571523087   0.111191856576235   1.0000000
B2   B   0.760633554682358   0.236475692469115   0.111096522318129   1.0000000
B2   B   0.761930010768573   0.380415179644702   0.110979482682221   1.0000000
B2   B   0.766682987933666   0.525163401796785   0.110922371931885   1.0000000
B2   B   0.774026289459189   0.673198827569320   0.110880310876191   1.0000000
B2   B   0.767678540719178   0.812494596730767   0.111042572960603   1.0000000
N2   N   0.955920474927910   0.907403538118459   0.110967102861163   1.0000000
N2   N   0.952806116308770   0.048108731137013   0.111026550510802   1.0000000
N2   N   0.950113414669809   0.188776993850048   0.111067875523598   1.0000000
N2   N   0.949865208852482   0.331480260300710   0.111000286531652   1.0000000
N2   N   0.951551954389241   0.475123506995846   0.110998647686363   1.0000000
N2   N   0.954883307108393   0.619459387454165   0.111066724113308   1.0000000
N2   N   0.956575522662345   0.763988602207028   0.111033551601623   1.0000000
N2   N   0.097680942551854   0.906335457975024   0.110955100310324   1.0000000
N2   N   0.096106067725676   0.048611511467360   0.110942303843440   1.0000000
N2   N   0.093689868465795   0.190096077718075   0.110991708987138   1.0000000
N2   N   0.091390610291876   0.331271845975468   0.110917387838869   1.0000000
N2   N   0.091552942959962   0.474605435708734   0.110911636740940   1.0000000
N2   N   0.094604115148300   0.618685963654701   0.111004534856029   1.0000000
N2   N   0.097229129997026   0.762780185297351   0.111036430371936   1.0000000
N2   N   0.239509696334187   0.905440303804394   0.110997282510821   1.0000000
N2   N   0.239114656066433   0.048551464270586   0.111025234206723   1.0000000
N2   N   0.236312021790207   0.190107143667981   0.111026495533933   1.0000000
N2   N   0.234596168110133   0.332737074589255   0.110959315878690   1.0000000
N2   N   0.230609912328498   0.473664091515123   0.111009093030299   1.0000000
N2   N   0.234377685595619   0.617992655139139   0.111036225751053   1.0000000
N2   N   0.238391191508690   0.761908449792892   0.111050753617692   1.0000000
N2   N   0.381322214608294   0.903990325918564   0.111019399787248   1.0000000
N2   N   0.381578720422253   0.047658019541137   0.111055468695370   1.0000000
N2   N   0.380858762191592   0.191097601455642   0.111086111943287   1.0000000
N2   N   0.375104737290650   0.331624738091163   0.111027311303553   1.0000000
N2   N   0.373616337506322   0.477914330177452   0.110862330160467   1.0000000
N2   N   0.372976982731552   0.616710064086378   0.111069795165214   1.0000000
N2   N   0.379978317058607   0.760357595762875   0.111046748383548   1.0000000
N2   N   0.522846034366359   0.899978400971958   0.111007461361142   1.0000000
N2   N   0.523465608140603   0.045290876170667   0.111003505810607   1.0000000
N2   N   0.523908019149819   0.189515191093069   0.110994510962769   1.0000000
N2   N   0.524437984569728   0.332944771250940   0.111002186741004   1.0000000
N2   N   0.521199642226886   0.751606135907799   0.111010269370669   1.0000000
N2   N   0.665188949641134   0.900761925841626   0.111095105831081   1.0000000
N2   N   0.665267201950519   0.044603170333076   0.111125199687679   1.0000000
N2   N   0.665751113827519   0.188720305210730   0.111043565430690   1.0000000
N2   N   0.666709736952123   0.332972901845835   0.110931094614626   1.0000000
N2   N   0.672270272767625   0.477934078511529   0.110876859063591   1.0000000
N2   N   0.681800600655332   0.628166223109491   0.110850949188652   1.0000000
N2   N   0.672394525590292   0.764189360039424   0.111083561611979   1.0000000
N2   N   0.812164700956918   0.906331272245970   0.111071271986496   1.0000000
N2   N   0.808129031390796   0.045627478718780   0.111189128808567   1.0000000
N2   N   0.807656724619170   0.188346696794603   0.111173985119712   1.0000000
N2   N   0.808376706795081   0.331886481105260   0.111031481990315   1.0000000
N2   N   0.811593900646224   0.475934158055901   0.111002183680669   1.0000000
N2   N   0.816085881716907   0.621155772536904   0.110932925167874   1.0000000
N2   N   0.817048230339043   0.766912812875681   0.110970956187731   1.0000000
S2   S   0.523961146645076   0.490145194627848   0.111586690459156   1.0000000


