data_1
_audit_creation_method   'vasp2cif'
_cell_length_a    14.93631414619966
_cell_length_b    14.936314146199727
_cell_length_c    13.341276283792837
_cell_angle_alpha    90.0
_cell_angle_beta    90.0
_cell_angle_gamma    119.99999999999984

_symmetry_space_group_name_H-M    'P 1'
loop_
_atom_site_label
_atom_site_type_symbol
_atom_site_fract_x
_atom_site_fract_y
_atom_site_fract_z
_atom_site_occupancy
N2   N   0.111094902969803   0.055557371143070   0.124928607035756   1.0000000
N2   N   0.611184021991426   0.555701377316179   0.123933922301883   1.0000000
N2   N   0.444464672580993   0.055573478157377   0.124891157687867   1.0000000
N2   N   0.944426521842623   0.555535327419007   0.124891157687867   1.0000000
N2   N   0.777790930106227   0.055562131719781   0.124909404699951   1.0000000
N2   N   0.111100440799669   0.722216887066499   0.625092250165610   1.0000000
N2   N   0.444464672580993   0.722224527756951   0.625108842312133   1.0000000
N2   N   0.277733825247485   0.222210749327866   0.625212763890196   1.0000000
N2   N   0.777789250672134   0.722266174752515   0.625212763890196   1.0000000
N2   N   0.611143590747052   0.222210749327866   0.625212763890196   1.0000000
N2   N   0.944437868280219   0.222209069893773   0.625090595300049   1.0000000
N2   N   0.277783112933501   0.722216887066499   0.124907749834390   1.0000000
N2   N   0.111073191010965   0.222203262172147   0.124917867030014   1.0000000
N2   N   0.444446909589586   0.222227152512508   0.124685707913412   1.0000000
N2   N   0.611143590747052   0.722266174752515   0.124787236109804   1.0000000
N2   N   0.944426521842623   0.722224527756951   0.124891157687867   1.0000000
N2   N   0.777796737827854   0.222203262172147   0.124917867030014   1.0000000
N2   N   0.111101914301230   0.888898085698769   0.625113291767334   1.0000000
N2   N   0.444462838064211   0.888898085698769   0.625113291767334   1.0000000
N2   N   0.277733825247485   0.388856409252948   0.625212763890196   1.0000000
N2   N   0.611184021991426   0.388815978008575   0.626066077698118   1.0000000
N2   N   0.777796737827854   0.888926808989035   0.625082132969986   1.0000000
N2   N   0.944442628856930   0.388870865160061   0.625071392964245   1.0000000
N2   N   0.111094902969803   0.388870865160061   0.124928607035756   1.0000000
N2   N   0.277783112933501   0.888899559200331   0.124907749834390   1.0000000
N2   N   0.611129134839939   0.888905097030197   0.124928607035756   1.0000000
N2   N   0.444298622683820   0.388815978008575   0.123933922301883   1.0000000
N2   N   0.944442628856930   0.888905097030197   0.124928607035756   1.0000000
N2   N   0.777789250672134   0.388856409252948   0.124787236109804   1.0000000
N2   N   0.277775472243049   0.555535327419007   0.625108842312133   1.0000000
N2   N   0.111094902969803   0.055557371143070   0.625071392964245   1.0000000
N2   N   0.611184021991426   0.555701377316179   0.626066077698118   1.0000000
N2   N   0.444464672580993   0.055573478157377   0.625108842312133   1.0000000
N2   N   0.944426521842623   0.555535327419007   0.625108842312133   1.0000000
N2   N   0.111101914301230   0.555537161935789   0.124886708232666   1.0000000
N2   N   0.777790930106227   0.055562131719781   0.625090595300049   1.0000000
N2   N   0.277775472243049   0.055573478157377   0.124891157687867   1.0000000
N2   N   0.444446909589586   0.555553090410414   0.124685707913412   1.0000000
N2   N   0.777772847487492   0.555553090410414   0.124685707913412   1.0000000
N2   N   0.611129134839939   0.055557371143070   0.124928607035756   1.0000000
N2   N   0.444446909589586   0.555553090410414   0.625314292086588   1.0000000
N2   N   0.944437868280219   0.055562131719781   0.124909404699951   1.0000000
N2   N   0.277783112933501   0.722216887066499   0.625092250165610   1.0000000
N2   N   0.111073191010965   0.222203262172147   0.625082132969986   1.0000000
N2   N   0.444446909589586   0.222227152512508   0.625314292086588   1.0000000
N2   N   0.611143590747052   0.722266174752515   0.625212763890196   1.0000000
N2   N   0.944426521842623   0.722224527756951   0.625108842312133   1.0000000
N2   N   0.777796737827854   0.222203262172147   0.625082132969986   1.0000000
N2   N   0.111100440799669   0.722216887066499   0.124907749834390   1.0000000
N2   N   0.444464672580993   0.722224527756951   0.124891157687867   1.0000000
N2   N   0.277733825247485   0.222210749327866   0.124787236109804   1.0000000
N2   N   0.777789250672134   0.722266174752515   0.124787236109804   1.0000000
N2   N   0.611143590747052   0.222210749327866   0.124787236109804   1.0000000
N2   N   0.944437868280219   0.222209069893773   0.124909404699951   1.0000000
N2   N   0.111094902969803   0.388870865160061   0.625071392964245   1.0000000
N2   N   0.277783112933501   0.888899559200331   0.625092250165610   1.0000000
N2   N   0.611129134839939   0.888905097030197   0.625071392964245   1.0000000
N2   N   0.444298622683820   0.388815978008575   0.626066077698118   1.0000000
N2   N   0.944442628856930   0.888905097030197   0.625071392964245   1.0000000
N2   N   0.111101914301230   0.888898085698769   0.124886708232666   1.0000000
N2   N   0.777789250672134   0.388856409252948   0.625212763890196   1.0000000
N2   N   0.444462838064211   0.888898085698769   0.124886708232666   1.0000000
N2   N   0.277733825247485   0.388856409252948   0.124787236109804   1.0000000
N2   N   0.277775472243049   0.555535327419007   0.124891157687867   1.0000000
N2   N   0.611184021991426   0.388815978008575   0.123933922301883   1.0000000
N2   N   0.777796737827854   0.888926808989035   0.124917867030014   1.0000000
N2   N   0.944442628856930   0.388870865160061   0.124928607035756   1.0000000
N2   N   0.111101914301230   0.555537161935789   0.625113291767334   1.0000000
N2   N   0.277775472243049   0.055573478157377   0.625108842312133   1.0000000
N2   N   0.777772847487492   0.555553090410414   0.625314292086588   1.0000000
N2   N   0.611129134839939   0.055557371143070   0.625071392964245   1.0000000
N2   N   0.944437868280219   0.055562131719781   0.625090595300049   1.0000000
N2   N   0.056347158340682   0.111598070203745   0.375000000000000   1.0000000
N2   N   0.554279330956196   0.604640079987281   0.375000000000000   1.0000000
N2   N   0.388988052789638   0.111309438912618   0.375000000000000   1.0000000
N2   N   0.888690561087382   0.611011947210362   0.375000000000000   1.0000000
N2   N   0.721917578529727   0.111598070203745   0.375000000000000   1.0000000
N2   N   0.055562436152320   0.777780738777436   0.875000000000000   1.0000000
N2   N   0.388884969291781   0.777780738777436   0.875000000000000   1.0000000
N2   N   0.222229154001712   0.277781243667524   0.875000000000000   1.0000000
N2   N   0.722218756332476   0.777770845998288   0.875000000000000   1.0000000
N2   N   0.555545947951000   0.277767373520696   0.875000000000000   1.0000000
N2   N   0.888890694535120   0.277784919885532   0.875000000000000   1.0000000
N2   N   0.222222222222221   0.777777777777779   0.375000000000000   1.0000000
N2   N   0.056347158340682   0.278082421470273   0.375000000000000   1.0000000
N2   N   0.395359920012720   0.282972584302251   0.375000000000000   1.0000000
N2   N   0.555458217954681   0.775412228314934   0.375000000000000   1.0000000
N2   N   0.886620677026918   0.775412228314934   0.375000000000000   1.0000000
N2   N   0.720965568013662   0.279034431986338   0.375000000000000   1.0000000
N2   N   0.055559075288504   0.944440924711497   0.875000000000000   1.0000000
N2   N   0.388884969291781   0.944437563847681   0.875000000000000   1.0000000
N2   N   0.222223308341918   0.444452064325681   0.875000000000000   1.0000000
N2   N   0.555555555555557   0.444444444444443   0.875000000000000   1.0000000
N2   N   0.722215080114468   0.944439107982924   0.875000000000000   1.0000000
N2   N   0.888895422650427   0.444452064325681   0.875000000000000   1.0000000
N2   N   0.055486401580600   0.444306136494529   0.375000000000000   1.0000000
N2   N   0.222260390426686   0.944667764313082   0.375000000000000   1.0000000
N2   N   0.555693863505471   0.944513598419400   0.375000000000000   1.0000000
N2   N   0.395359920012720   0.445720669043804   0.375000000000000   1.0000000
N2   N   0.888401929796255   0.943652841659317   0.375000000000000   1.0000000
N2   N   0.717027415697749   0.445720669043804   0.375000000000000   1.0000000
N2   N   0.222219261222564   0.611115030708219   0.875000000000000   1.0000000
N2   N   0.055560892017076   0.111109305464880   0.875000000000000   1.0000000
N2   N   0.555545947951000   0.611111907763639   0.875000000000000   1.0000000
N2   N   0.388880666766353   0.111094666866048   0.875000000000000   1.0000000
N2   N   0.888905333133952   0.611119333233647   0.875000000000000   1.0000000
N2   N   0.055332235686919   0.610925959446941   0.375000000000000   1.0000000
N2   N   0.722215080114468   0.111109305464880   0.875000000000000   1.0000000
N2   N   0.224587771685065   0.113379322973082   0.375000000000000   1.0000000
N2   N   0.388988052789637   0.611011947210362   0.375000000000000   1.0000000
N2   N   0.717027415697749   0.604640079987281   0.375000000000000   1.0000000
N2   N   0.555458217954681   0.113379322973082   0.375000000000000   1.0000000
N2   N   0.388880666766353   0.611119333233647   0.875000000000000   1.0000000
N2   N   0.888888888888886   0.111111111111114   0.375000000000000   1.0000000
N2   N   0.222222222222221   0.777777777777779   0.875000000000000   1.0000000
N2   N   0.055560892017076   0.277784919885532   0.875000000000000   1.0000000
N2   N   0.388888092236361   0.277767373520696   0.875000000000000   1.0000000
N2   N   0.555547935674319   0.777776691658082   0.875000000000000   1.0000000
N2   N   0.888895422650427   0.777776691658082   0.875000000000000   1.0000000
N2   N   0.722218756332476   0.277781243667524   0.875000000000000   1.0000000
N2   N   0.055332235686919   0.777739609573314   0.375000000000000   1.0000000
N2   N   0.389074040553059   0.777739609573314   0.375000000000000   1.0000000
N2   N   0.224735530639340   0.279034431986338   0.375000000000000   1.0000000
N2   N   0.720965568013662   0.775264469360660   0.375000000000000   1.0000000
N2   N   0.554279330956196   0.282972584302251   0.375000000000000   1.0000000
N2   N   0.888401929796255   0.278082421470273   0.375000000000000   1.0000000
N2   N   0.055559075288504   0.444451483910337   0.875000000000000   1.0000000
N2   N   0.222219261222564   0.944437563847681   0.875000000000000   1.0000000
N2   N   0.555548516089663   0.944440924711497   0.875000000000000   1.0000000
N2   N   0.388888092236361   0.444454052049000   0.875000000000000   1.0000000
N2   N   0.888890694535120   0.944439107982924   0.875000000000000   1.0000000
N2   N   0.055486401580600   0.944513598419400   0.375000000000000   1.0000000
N2   N   0.722232626479304   0.444454052049000   0.875000000000000   1.0000000
N2   N   0.389074040553059   0.944667764313082   0.375000000000000   1.0000000
N2   N   0.224587771685065   0.444541782045319   0.375000000000000   1.0000000
N2   N   0.222260390426686   0.610925959446941   0.375000000000000   1.0000000
N2   N   0.721917578529727   0.943652841659317   0.375000000000000   1.0000000
N2   N   0.886620677026918   0.444541782045319   0.375000000000000   1.0000000
N2   N   0.055562436152320   0.611115030708219   0.875000000000000   1.0000000
N2   N   0.222223308341918   0.111104577349573   0.875000000000000   1.0000000
N2   N   0.722232626479304   0.611111907763639   0.875000000000000   1.0000000
N2   N   0.555547935674319   0.111104577349573   0.875000000000000   1.0000000
N2   N   0.888888888888886   0.111111111111114   0.875000000000000   1.0000000
B2   B   0.112685534897120   0.056654817327977   0.375000000000000   1.0000000
B2   B   0.601258539971151   0.535850413275632   0.375000000000000   1.0000000
B2   B   0.444486908286761   0.056264956014852   0.375000000000000   1.0000000
B2   B   0.943735043985148   0.555513091713239   0.375000000000000   1.0000000
B2   B   0.777337730668442   0.055335532000889   0.375000000000000   1.0000000
B2   B   0.111104590869272   0.722218962101300   0.875000000000000   1.0000000
B2   B   0.444441488208649   0.722191133049594   0.875000000000000   1.0000000
B2   B   0.277858883110503   0.222271475321517   0.875000000000000   1.0000000
B2   B   0.777728524678483   0.722141116889497   0.875000000000000   1.0000000
B2   B   0.611079258877685   0.222271475321517   0.875000000000000   1.0000000
B2   B   0.944452216282233   0.222237765897803   0.875000000000000   1.0000000
B2   B   0.277890415714429   0.722109584285572   0.375000000000000   1.0000000
B2   B   0.113182949146879   0.223258141240104   0.375000000000000   1.0000000
B2   B   0.444885404299379   0.223104141932093   0.375000000000000   1.0000000
B2   B   0.609742413863909   0.716574622055626   0.375000000000000   1.0000000
B2   B   0.943735043985148   0.721555285605245   0.375000000000000   1.0000000
B2   B   0.776741858759896   0.223258141240104   0.375000000000000   1.0000000
B2   B   0.111116497974480   0.888883502025520   0.875000000000000   1.0000000
B2   B   0.444433670717712   0.888883502025520   0.875000000000000   1.0000000
B2   B   0.277858883110503   0.388920741122315   0.875000000000000   1.0000000
B2   B   0.611074076628746   0.388925923371254   0.875000000000000   1.0000000
B2   B   0.777750051566254   0.888833436465836   0.875000000000000   1.0000000
B2   B   0.944432274974297   0.388911581439569   0.875000000000000   1.0000000
B2   B   0.112685534897120   0.389364050902472   0.375000000000000   1.0000000
B2   B   0.277890415714429   0.889114164762186   0.375000000000000   1.0000000
B2   B   0.610635949097528   0.887314465102880   0.375000000000000   1.0000000
B2   B   0.464149586724368   0.398741460028848   0.375000000000000   1.0000000
B2   B   0.943345182672024   0.887314465102880   0.375000000000000   1.0000000
B2   B   0.773498874858387   0.390257586136090   0.375000000000000   1.0000000
B2   B   0.277808866950406   0.555558511791351   0.875000000000000   1.0000000
B2   B   0.111145973131944   0.055567725025703   0.875000000000000   1.0000000
B2   B   0.611074076628746   0.555481486590821   0.875000000000000   1.0000000
B2   B   0.444441488208649   0.055583688492391   0.875000000000000   1.0000000
B2   B   0.944416311507609   0.555558511791351   0.875000000000000   1.0000000
B2   B   0.111080830646066   0.555494994625460   0.375000000000000   1.0000000
B2   B   0.777762234102197   0.055547783717767   0.875000000000000   1.0000000
B2   B   0.278444714394755   0.056264956014852   0.375000000000000   1.0000000
B2   B   0.444885404299379   0.555114595700622   0.375000000000000   1.0000000
B2   B   0.776895858067907   0.555114595700622   0.375000000000000   1.0000000
B2   B   0.610635949097528   0.056654817327977   0.375000000000000   1.0000000
B2   B   0.444471788498070   0.555528211501930   0.875000000000000   1.0000000
B2   B   0.944664467999111   0.055335532000889   0.375000000000000   1.0000000
B2   B   0.277781037898700   0.722218962101300   0.875000000000000   1.0000000
B2   B   0.111166563534164   0.222249948433746   0.875000000000000   1.0000000
B2   B   0.444471788498070   0.222276910329476   0.875000000000000   1.0000000
B2   B   0.611079258877685   0.722141116889497   0.875000000000000   1.0000000
B2   B   0.944416311507609   0.722191133049594   0.875000000000000   1.0000000
B2   B   0.777750051566254   0.222249948433746   0.875000000000000   1.0000000
B2   B   0.110885835237815   0.722109584285572   0.375000000000000   1.0000000
B2   B   0.444486908286761   0.721555285605245   0.375000000000000   1.0000000
B2   B   0.283425377944374   0.226501125141613   0.375000000000000   1.0000000
B2   B   0.773498874858387   0.716574622055626   0.375000000000000   1.0000000
B2   B   0.609742413863909   0.226501125141613   0.375000000000000   1.0000000
B2   B   0.944664467999111   0.222662269331558   0.375000000000000   1.0000000
B2   B   0.111145973131944   0.388911581439569   0.875000000000000   1.0000000
B2   B   0.277781037898700   0.888895409130728   0.875000000000000   1.0000000
B2   B   0.611088418560430   0.888854026868056   0.875000000000000   1.0000000
B2   B   0.444518513409180   0.388925923371254   0.875000000000000   1.0000000
B2   B   0.944432274974297   0.888854026868056   0.875000000000000   1.0000000
B2   B   0.111080830646066   0.888919169353934   0.375000000000000   1.0000000
B2   B   0.777728524678483   0.388920741122315   0.875000000000000   1.0000000
B2   B   0.444505005374540   0.888919169353934   0.375000000000000   1.0000000
B2   B   0.283425377944374   0.390257586136090   0.375000000000000   1.0000000
B2   B   0.278444714394755   0.555513091713239   0.375000000000000   1.0000000
B2   B   0.601258539971151   0.398741460028848   0.375000000000000   1.0000000
B2   B   0.776741858759896   0.886817050853122   0.375000000000000   1.0000000
B2   B   0.943345182672024   0.389364050902472   0.375000000000000   1.0000000
B2   B   0.111116497974480   0.555566329282288   0.875000000000000   1.0000000
B2   B   0.277808866950406   0.055583688492391   0.875000000000000   1.0000000
B2   B   0.777723089670524   0.555528211501930   0.875000000000000   1.0000000
B2   B   0.611088418560430   0.055567725025703   0.875000000000000   1.0000000
B2   B   0.944452216282233   0.055547783717767   0.875000000000000   1.0000000
B2   B   0.055583904213880   0.111141230224716   0.125071224738598   1.0000000
B2   B   0.555646426431971   0.610938091193890   0.125080925706972   1.0000000
B2   B   0.389008835615434   0.111351004564210   0.125139418727557   1.0000000
B2   B   0.888648995435789   0.610991164384566   0.125139418727557   1.0000000
B2   B   0.722223992677500   0.111141230224716   0.125071224738598   1.0000000
B2   B   0.055463049894468   0.777742884526985   0.624931325055511   1.0000000
B2   B   0.388946501299181   0.777742884526985   0.624931325055511   1.0000000
B2   B   0.222324748693041   0.277829041013188   0.624894132780184   1.0000000
B2   B   0.722170958986812   0.777675251306960   0.624894132780184   1.0000000
B2   B   0.555646426431971   0.278041668571417   0.624919074293028   1.0000000
B2   B   0.888858769775284   0.277776007322500   0.624928775261402   1.0000000
B2   B   0.222222222222221   0.777777777777779   0.125059163776533   1.0000000
B2   B   0.055583904213880   0.277776007322500   0.125071224738598   1.0000000
B2   B   0.389061908806110   0.278041668571417   0.125080925706972   1.0000000
B2   B   0.555602429786844   0.777690112406826   0.125119134406391   1.0000000
B2   B   0.888754349286647   0.777690112406826   0.125119134406391   1.0000000
B2   B   0.722170958986812   0.277829041013188   0.125105867219816   1.0000000
B2   B   0.055538166112927   0.944461833887073   0.624917967996398   1.0000000
B2   B   0.388946501299181   0.944536950105532   0.624931325055511   1.0000000
B2   B   0.222309887593174   0.444397570213156   0.624880865593609   1.0000000
B2   B   0.555555555555557   0.444444444444443   0.622804631334648   1.0000000
B2   B   0.722223992677500   0.944416095786120   0.624928775261402   1.0000000
B2   B   0.888754349286647   0.444397570213156   0.624880865593609   1.0000000
B2   B   0.055538166112927   0.444409665559183   0.125082032003602   1.0000000
B2   B   0.222257115473015   0.944536950105532   0.125068674944489   1.0000000
B2   B   0.555590334440817   0.944461833887073   0.125082032003602   1.0000000
B2   B   0.389061908806110   0.444353573568029   0.125080925706972   1.0000000
B2   B   0.888858769775284   0.944416095786120   0.125071224738598   1.0000000
B2   B   0.721958331428583   0.444353573568029   0.125080925706972   1.0000000
B2   B   0.222257115473015   0.611053498700819   0.624931325055511   1.0000000
B2   B   0.055583904213880   0.111141230224716   0.624928775261402   1.0000000
B2   B   0.555646426431971   0.610938091193890   0.624919074293028   1.0000000
B2   B   0.389008835615434   0.111351004564210   0.624860581272442   1.0000000
B2   B   0.888648995435789   0.610991164384566   0.624860581272442   1.0000000
B2   B   0.055463049894468   0.611053498700819   0.125068674944489   1.0000000
B2   B   0.722223992677500   0.111141230224716   0.624928775261402   1.0000000
B2   B   0.222309887593174   0.111245650713353   0.125119134406391   1.0000000
B2   B   0.389008835615434   0.610991164384566   0.125139418727557   1.0000000
B2   B   0.721958331428583   0.610938091193890   0.125080925706972   1.0000000
B2   B   0.555602429786844   0.111245650713353   0.125119134406391   1.0000000
B2   B   0.389008835615434   0.610991164384566   0.624860581272442   1.0000000
B2   B   0.888888888888886   0.111111111111114   0.125039271467568   1.0000000
B2   B   0.222222222222221   0.777777777777779   0.624940836223467   1.0000000
B2   B   0.055583904213880   0.277776007322500   0.624928775261402   1.0000000
B2   B   0.389061908806110   0.278041668571417   0.624919074293028   1.0000000
B2   B   0.555602429786844   0.777690112406826   0.624880865593609   1.0000000
B2   B   0.888754349286647   0.777690112406826   0.624880865593609   1.0000000
B2   B   0.722170958986812   0.277829041013188   0.624894132780184   1.0000000
B2   B   0.055463049894468   0.777742884526985   0.125068674944489   1.0000000
B2   B   0.388946501299181   0.777742884526985   0.125068674944489   1.0000000
B2   B   0.222324748693041   0.277829041013188   0.125105867219816   1.0000000
B2   B   0.722170958986812   0.777675251306960   0.125105867219816   1.0000000
B2   B   0.555646426431971   0.278041668571417   0.125080925706972   1.0000000
B2   B   0.888858769775284   0.277776007322500   0.125071224738598   1.0000000
B2   B   0.055538166112927   0.444409665559183   0.624917967996398   1.0000000
B2   B   0.222257115473015   0.944536950105532   0.624931325055511   1.0000000
B2   B   0.555590334440817   0.944461833887073   0.624917967996398   1.0000000
B2   B   0.389061908806110   0.444353573568029   0.624919074293028   1.0000000
B2   B   0.888858769775284   0.944416095786120   0.624928775261402   1.0000000
B2   B   0.055538166112927   0.944461833887073   0.125082032003602   1.0000000
B2   B   0.721958331428583   0.444353573568029   0.624919074293028   1.0000000
B2   B   0.388946501299181   0.944536950105532   0.125068674944489   1.0000000
B2   B   0.222309887593174   0.444397570213156   0.125119134406391   1.0000000
B2   B   0.222257115473015   0.611053498700819   0.125068674944489   1.0000000
B2   B   0.555555555555557   0.444444444444443   0.127195368665352   1.0000000
B2   B   0.722223992677500   0.944416095786120   0.125071224738598   1.0000000
B2   B   0.888754349286647   0.444397570213156   0.125119134406391   1.0000000
B2   B   0.055463049894468   0.611053498700819   0.624931325055511   1.0000000
B2   B   0.222309887593174   0.111245650713353   0.624880865593609   1.0000000
B2   B   0.721958331428583   0.610938091193890   0.624919074293028   1.0000000
B2   B   0.555602429786844   0.111245650713353   0.624880865593609   1.0000000
B2   B   0.888888888888886   0.111111111111114   0.624960728532432   1.0000000


