data_1
_audit_creation_method   'vasp2cif'
_cell_length_a    17.52789999999977
_cell_length_b    17.52789999999977
_cell_length_c    15.0
_cell_angle_alpha    90.0
_cell_angle_beta    90.0
_cell_angle_gamma    119.99999999999916

_symmetry_space_group_name_H-M    'P 1'
loop_
_atom_site_label
_atom_site_type_symbol
_atom_site_fract_x
_atom_site_fract_y
_atom_site_fract_z
_atom_site_occupancy
B2   B   0.905521655916390   0.953866797770340   0.109270698591543   1.0000000
B2   B   0.904002328901709   0.095999692294316   0.111803422833825   1.0000000
B2   B   0.903468806235038   0.238754974956086   0.110435302127877   1.0000000
B2   B   0.903596259171435   0.381610084987753   0.107870086313595   1.0000000
B2   B   0.904759713773222   0.524588880680059   0.106860576427216   1.0000000
B2   B   0.906294197543364   0.667840701988934   0.106523902600579   1.0000000
B2   B   0.906873825642223   0.811525011327883   0.105415643791979   1.0000000
B2   B   0.047694672963517   0.952307348232493   0.108372619239465   1.0000000
B2   B   0.046135223425650   0.094480365279606   0.109270698591543   1.0000000
B2   B   0.045634147869991   0.237679039939035   0.109098907593303   1.0000000
B2   B   0.046060326342635   0.380956807698753   0.107922830912860   1.0000000
B2   B   0.047287180451724   0.523938652281252   0.107881883523770   1.0000000
B2   B   0.048362918752194   0.666826298785859   0.108598416297131   1.0000000
B2   B   0.048430226914876   0.809709071169769   0.108140903824851   1.0000000
B2   B   0.190292950026242   0.951571794281177   0.108140903824851   1.0000000
B2   B   0.188477009868099   0.093128195553810   0.105415643791979   1.0000000
B2   B   0.186435420652729   0.234877941426738   0.105586679892749   1.0000000
B2   B   0.187680921850968   0.379606725010708   0.106181526280837   1.0000000
B2   B   0.189826560340624   0.523240488902910   0.107238364655818   1.0000000
B2   B   0.191127495001176   0.666240651675084   0.109466677760772   1.0000000
B2   B   0.190941757379403   0.809060263816629   0.110110020790906   1.0000000
B2   B   0.333175722411133   0.951639102443852   0.108598416297131   1.0000000
B2   B   0.332161319208028   0.093707823652604   0.106523902600579   1.0000000
B2   B   0.328805642096189   0.233453013647200   0.106997514375266   1.0000000
B2   B   0.325706910900885   0.374984515615770   0.110726888875966   1.0000000
B2   B   0.332222606680037   0.521378219274494   0.106738505054401   1.0000000
B2   B   0.334410864527452   0.665591156669517   0.107683772569215   1.0000000
B2   B   0.333761369521901   0.808874526194814   0.109466677760772   1.0000000
B2   B   0.476063368915754   0.952714840744286   0.107881883523770   1.0000000
B2   B   0.475413140516939   0.095242307422782   0.106860576427216   1.0000000
B2   B   0.474310223047612   0.237277674662547   0.111934688337186   1.0000000
B2   B   0.463428335825155   0.369054571572443   0.144360464709251   1.0000000
B2   B   0.478623801922498   0.667779414516948   0.106738505054401   1.0000000
B2   B   0.476761532294081   0.810175460855394   0.107238364655818   1.0000000
B2   B   0.619045213497251   0.953941694853368   0.107922830912860   1.0000000
B2   B   0.618391936208244   0.096405762024568   0.107870086313595   1.0000000
B2   B   0.617799258226650   0.239290919325939   0.108493751133821   1.0000000
B2   B   0.617341256042961   0.382660765153014   0.120126966822520   1.0000000
B2   B   0.630947449623553   0.536573685371851   0.144360464709251   1.0000000
B2   B   0.625017505580212   0.674295110296112   0.110726888875966   1.0000000
B2   B   0.620395296185303   0.812321099345028   0.106181526280837   1.0000000
B2   B   0.762322981256996   0.954367873326026   0.109098907593303   1.0000000
B2   B   0.761247046239918   0.096533214960937   0.110435302127884   1.0000000
B2   B   0.760779547292574   0.239222473903429   0.108738956455061   1.0000000
B2   B   0.760711101870064   0.382202762969332   0.108493751133821   1.0000000
B2   B   0.762724346533464   0.525691798149421   0.111934688337186   1.0000000
B2   B   0.766549007548811   0.671196379100809   0.106997514375273   1.0000000
B2   B   0.765124079769251   0.813566600543275   0.105586679892749   1.0000000
N2   N   0.953172397372608   0.906064777445471   0.108036077597230   1.0000000
N2   N   0.951698805813769   0.048302596104223   0.111415060218556   1.0000000
N2   N   0.950818169963374   0.190882415037486   0.111479906147413   1.0000000
N2   N   0.950871248431810   0.333784479790031   0.108866874506155   1.0000000
N2   N   0.951877286142826   0.476715167108943   0.107126903940447   1.0000000
N2   N   0.953145529362868   0.619672660804519   0.107149404978717   1.0000000
N2   N   0.953596599463719   0.762896423801200   0.106179202739420   1.0000000
N2   N   0.095381766862634   0.904619635055329   0.108433128749566   1.0000000
N2   N   0.093936624472521   0.046829004545405   0.108036077597230   1.0000000
N2   N   0.092215606031747   0.188903318622324   0.108023924863158   1.0000000
N2   N   0.092774423116880   0.332675287056695   0.107393469809346   1.0000000
N2   N   0.094384313609906   0.476068988331279   0.107575038481867   1.0000000
N2   N   0.095677284811259   0.619043841822755   0.108983511922587   1.0000000
N2   N   0.095830284856145   0.761878261714725   0.109488594336609   1.0000000
N2   N   0.238123140203267   0.904171117061832   0.109488594336609   1.0000000
N2   N   0.237104978116806   0.046404802454287   0.106179202739420   1.0000000
N2   N   0.234429085106747   0.187380378036017   0.103148674141382   1.0000000
N2   N   0.232136424315940   0.328992404802145   0.106029328705260   1.0000000
N2   N   0.236348854108389   0.474955437873876   0.106087721496782   1.0000000
N2   N   0.238662141080178   0.618540840548028   0.108332546963037   1.0000000
N2   N   0.238537919533619   0.761463482384365   0.110495835099423   1.0000000
N2   N   0.380957560095230   0.904324117106769   0.108983511922587   1.0000000
N2   N   0.380328741113459   0.046855872555117   0.107149404978717   1.0000000
N2   N   0.379055399873549   0.188616217674955   0.107764900216360   1.0000000
N2   N   0.373807511385894   0.326953421648538   0.116005145944759   1.0000000
N2   N   0.372359666598840   0.467766504270551   0.108609196655917   1.0000000
N2   N   0.382260126883469   0.617741275034530   0.106575868577519   1.0000000
N2   N   0.381460561369970   0.761339260837835   0.108332546963037   1.0000000
N2   N   0.523932413585738   0.905617088308107   0.107575038481867   1.0000000
N2   N   0.523286234808068   0.048124115775151   0.107126903940447   1.0000000
N2   N   0.522638018829571   0.190735624677088   0.107557950843134   1.0000000
N2   N   0.520912005182514   0.332529622559728   0.124279298321508   1.0000000
N2   N   0.532234897646447   0.627641735319160   0.108609196655910   1.0000000
N2   N   0.525045964043107   0.763652547809630   0.106087721496782   1.0000000
N2   N   0.667326114860294   0.907226978801104   0.107393469809346   1.0000000
N2   N   0.666216922127001   0.049130153486168   0.108866874506155   1.0000000
N2   N   0.665590148342581   0.191820291228748   0.107888621377926   1.0000000
N2   N   0.664896875702914   0.335104526214091   0.110496880735549   1.0000000
N2   N   0.667471779357262   0.479089396734454   0.124279298321508   1.0000000
N2   N   0.673047980268481   0.626193890532104   0.116005145944759   1.0000000
N2   N   0.671008997114852   0.767864977602080   0.106029328705260   1.0000000
N2   N   0.811098083295681   0.907785795886237   0.108023924863158   1.0000000
N2   N   0.809118986880506   0.049183231954631   0.111479906147413   1.0000000
N2   N   0.808379648071965   0.191621753846048   0.110378904845077   1.0000000
N2   N   0.808181110689243   0.334411253574409   0.107888621377926   1.0000000
N2   N   0.809265777240925   0.477363383087447   0.107557950843134   1.0000000
N2   N   0.811385184243043   0.620946002044464   0.107764900216360   1.0000000
N2   N   0.812621023881996   0.765572316811273   0.103148674141382   1.0000000
Ga2   Ga   0.491717891083420   0.508284130113584   0.117155109540063   1.0000000
Al2   Al   0.541610896173769   0.458390505743213   0.254672439383609   1.0000000


