data_1
_audit_creation_method   'vasp2cif'
_cell_length_a    14.93631414619966
_cell_length_b    14.936314146199727
_cell_length_c    13.341276283792837
_cell_angle_alpha    90.0
_cell_angle_beta    90.0
_cell_angle_gamma    119.99999999999984

_symmetry_space_group_name_H-M    'P 1'
loop_
_atom_site_label
_atom_site_type_symbol
_atom_site_fract_x
_atom_site_fract_y
_atom_site_fract_z
_atom_site_occupancy
In2   In   0.555555555555557   0.444444444444443   0.375000000000000   1.0000000
N2   N   0.111013093470537   0.055527872623371   0.124165132581803   1.0000000
N2   N   0.611496454417638   0.556326242168650   0.131038387989080   1.0000000
N2   N   0.444484614584850   0.055587617205929   0.125015156745683   1.0000000
N2   N   0.944412382794050   0.555515385415195   0.125015156745683   1.0000000
N2   N   0.777840793680506   0.055587063506925   0.124203111605354   1.0000000
N2   N   0.111091090112580   0.722212211722935   0.625306214339528   1.0000000
N2   N   0.444484614584850   0.722230330712191   0.624984843254299   1.0000000
N2   N   0.277480091763075   0.222090661149695   0.625120164911746   1.0000000
N2   N   0.777909338850301   0.722519908236944   0.625120164911746   1.0000000
N2   N   0.611277236053263   0.222090661149695   0.625120164911746   1.0000000
N2   N   0.944412936493013   0.222159206319476   0.625796888394667   1.0000000
N2   N   0.277787788277027   0.722212211722935   0.124693785660486   1.0000000
N2   N   0.110881188203500   0.222107260768412   0.124212531773344   1.0000000
N2   N   0.444456951030733   0.222247235394786   0.128050096974042   1.0000000
N2   N   0.611277236053263   0.722519908236944   0.124879835088276   1.0000000
N2   N   0.944412382794043   0.722230330712191   0.125015156745683   1.0000000
N2   N   0.777892739231613   0.222107260768412   0.124212531773344   1.0000000
N2   N   0.111093390580726   0.888906609419224   0.625690705494301   1.0000000
N2   N   0.444479885505205   0.888906609419224   0.625690705494301   1.0000000
N2   N   0.277480091763093   0.388722763946722   0.625120164911746   1.0000000
N2   N   0.611496454417640   0.388503545582339   0.618961612010906   1.0000000
N2   N   0.777892739231613   0.889118811796454   0.625787468226670   1.0000000
N2   N   0.944472127376622   0.388818554180477   0.625834867418249   1.0000000
N2   N   0.111013093470537   0.388818554180477   0.124165132581803   1.0000000
N2   N   0.277787788277028   0.888908909887383   0.124693785660486   1.0000000
N2   N   0.611181445819496   0.888986906529426   0.124165132581803   1.0000000
N2   N   0.443673757831391   0.388503545582339   0.131038387989080   1.0000000
N2   N   0.944472127376622   0.888986906529426   0.124165132581803   1.0000000
N2   N   0.777909338850301   0.388722763946722   0.124879835088276   1.0000000
N2   N   0.277769669287777   0.555515385415195   0.624984843254299   1.0000000
N2   N   0.111013093470537   0.055527872623371   0.625834867418249   1.0000000
N2   N   0.611496454417647   0.556326242168650   0.618961612010921   1.0000000
N2   N   0.444484614584850   0.055587617205928   0.624984843254299   1.0000000
N2   N   0.944412382794050   0.555515385415195   0.624984843254299   1.0000000
N2   N   0.111093390580725   0.555520114494769   0.124309294505696   1.0000000
N2   N   0.777840793680507   0.055587063506925   0.625796888394667   1.0000000
N2   N   0.277769669287775   0.055587617205928   0.125015156745683   1.0000000
N2   N   0.444456951030731   0.555543048969278   0.128050096974040   1.0000000
N2   N   0.777752764605203   0.555543048969278   0.128050096974040   1.0000000
N2   N   0.611181445819496   0.055527872623371   0.124165132581803   1.0000000
N2   N   0.444456951030731   0.555543048969278   0.621949903025972   1.0000000
N2   N   0.944412936493013   0.055587063506925   0.124203111605351   1.0000000
N2   N   0.277787788277027   0.722212211722935   0.625306214339528   1.0000000
N2   N   0.110881188203500   0.222107260768413   0.625787468226670   1.0000000
N2   N   0.444456951030733   0.222247235394787   0.621949903025972   1.0000000
N2   N   0.611277236053263   0.722519908236944   0.625120164911746   1.0000000
N2   N   0.944412382794050   0.722230330712191   0.624984843254299   1.0000000
N2   N   0.777892739231613   0.222107260768412   0.625787468226670   1.0000000
N2   N   0.111091090112581   0.722212211722935   0.124693785660486   1.0000000
N2   N   0.444484614584850   0.722230330712191   0.125015156745683   1.0000000
N2   N   0.277480091763075   0.222090661149694   0.124879835088276   1.0000000
N2   N   0.777909338850301   0.722519908236944   0.124879835088276   1.0000000
N2   N   0.611277236053263   0.222090661149695   0.124879835088276   1.0000000
N2   N   0.944412936493013   0.222159206319476   0.124203111605351   1.0000000
N2   N   0.111013093470536   0.388818554180477   0.625834867418250   1.0000000
N2   N   0.277787788277028   0.888908909887383   0.625306214339528   1.0000000
N2   N   0.611181445819496   0.888986906529426   0.625834867418249   1.0000000
N2   N   0.443673757831390   0.388503545582339   0.618961612010921   1.0000000
N2   N   0.944472127376622   0.888986906529426   0.625834867418249   1.0000000
N2   N   0.111093390580725   0.888906609419224   0.124309294505696   1.0000000
N2   N   0.777909338850301   0.388722763946722   0.625120164911746   1.0000000
N2   N   0.444479885505205   0.888906609419224   0.124309294505696   1.0000000
N2   N   0.277480091763093   0.388722763946722   0.124879835088276   1.0000000
N2   N   0.277769669287775   0.555515385415195   0.125015156745683   1.0000000
N2   N   0.611496454417638   0.388503545582340   0.131038387989081   1.0000000
N2   N   0.777892739231613   0.889118811796454   0.124212531773347   1.0000000
N2   N   0.944472127376622   0.388818554180477   0.124165132581803   1.0000000
N2   N   0.111093390580725   0.555520114494769   0.625690705494301   1.0000000
N2   N   0.277769669287777   0.055587617205928   0.624984843254299   1.0000000
N2   N   0.777752764605203   0.555543048969278   0.621949903025971   1.0000000
N2   N   0.611181445819496   0.055527872623371   0.625834867418249   1.0000000
N2   N   0.944412936493013   0.055587063506924   0.625796888394667   1.0000000
N2   N   0.053806294188605   0.109916248002599   0.375000000000000   1.0000000
N2   N   0.556236372499239   0.625550984298431   0.375000000000000   1.0000000
N2   N   0.387221462014040   0.107776257361427   0.375000000000000   1.0000000
N2   N   0.892223742638577   0.612778537985957   0.375000000000000   1.0000000
N2   N   0.722776620480637   0.109916248002597   0.375000000000000   1.0000000
N2   N   0.055586310501726   0.777789999990961   0.875000000000000   1.0000000
N2   N   0.388870356155919   0.777789999990961   0.875000000000000   1.0000000
N2   N   0.222270702115932   0.277802017724604   0.875000000000000   1.0000000
N2   N   0.722197982275418   0.777729297884127   0.875000000000000   1.0000000
N2   N   0.555499531108217   0.277744490737948   0.875000000000000   1.0000000
N2   N   0.888882263480172   0.277791074163368   0.875000000000000   1.0000000
N2   N   0.222222222222221   0.777777777777779   0.375000000000000   1.0000000
N2   N   0.053806294188606   0.277223379519350   0.375000000000000   1.0000000
N2   N   0.374449015701602   0.264018721534143   0.375000000000000   1.0000000
N2   N   0.554934486096473   0.783573188415883   0.375000000000000   1.0000000
N2   N   0.895305368986072   0.783573188415882   0.375000000000000   1.0000000
N2   N   0.725099301156785   0.274900698843160   0.375000000000000   1.0000000
N2   N   0.055561701801321   0.944438298198694   0.875000000000000   1.0000000
N2   N   0.388870356155919   0.944413689498270   0.875000000000000   1.0000000
N2   N   0.222238262860370   0.444473122760848   0.875000000000000   1.0000000
N2   N   0.555555555555557   0.444444444444443   0.875000000000000   1.0000000
N2   N   0.722208925836696   0.944424522650141   0.875000000000000   1.0000000
N2   N   0.888901526567161   0.444473122760848   0.875000000000000   1.0000000
N2   N   0.055896820141147   0.445126973615614   0.375000000000000   1.0000000
N2   N   0.221713889464279   0.942955681172942   0.375000000000000   1.0000000
N2   N   0.554873026384431   0.944103179858865   0.375000000000000   1.0000000
N2   N   0.374449015701595   0.443763627500768   0.375000000000000   1.0000000
N2   N   0.890083751997399   0.946193705811391   0.375000000000000   1.0000000
N2   N   0.735981278465828   0.443763627500768   0.375000000000000   1.0000000
N2   N   0.222210000009039   0.611129643844109   0.875000000000000   1.0000000
N2   N   0.055575477349866   0.111117736519848   0.875000000000000   1.0000000
N2   N   0.555499531108217   0.611088373703658   0.875000000000000   1.0000000
N2   N   0.388857556139945   0.111048445613219   0.875000000000000   1.0000000
N2   N   0.888951554386766   0.611142443860050   0.875000000000000   1.0000000
N2   N   0.057044318827054   0.612091541624666   0.375000000000000   1.0000000
N2   N   0.722208925836696   0.111117736519848   0.875000000000000   1.0000000
N2   N   0.216426811584084   0.104694631013915   0.375000000000000   1.0000000
N2   N   0.387221462014040   0.612778537985957   0.375000000000000   1.0000000
N2   N   0.735981278465827   0.625550984298438   0.375000000000000   1.0000000
N2   N   0.554934486096477   0.104694631013914   0.375000000000000   1.0000000
N2   N   0.388857556139945   0.611142443860051   0.875000000000000   1.0000000
N2   N   0.888888888888886   0.111111111111114   0.375000000000000   1.0000000
N2   N   0.222222222222221   0.777777777777779   0.875000000000000   1.0000000
N2   N   0.055575477349866   0.277791074163368   0.875000000000000   1.0000000
N2   N   0.388911626296388   0.277744490737951   0.875000000000000   1.0000000
N2   N   0.555526877239120   0.777761737139654   0.875000000000000   1.0000000
N2   N   0.888901526567161   0.777761737139654   0.875000000000000   1.0000000
N2   N   0.722197982275418   0.277802017724604   0.875000000000000   1.0000000
N2   N   0.057044318827056   0.778286110535684   0.375000000000000   1.0000000
N2   N   0.387908458375313   0.778286110535684   0.375000000000000   1.0000000
N2   N   0.216468064353027   0.274900698843158   0.375000000000000   1.0000000
N2   N   0.725099301156782   0.783531935647017   0.375000000000000   1.0000000
N2   N   0.556236372499225   0.264018721534157   0.375000000000000   1.0000000
N2   N   0.890083751997402   0.277223379519350   0.375000000000000   1.0000000
N2   N   0.055561701801321   0.444456736935979   0.875000000000000   1.0000000
N2   N   0.222210000009039   0.944413689498270   0.875000000000000   1.0000000
N2   N   0.555543263063981   0.944438298198693   0.875000000000000   1.0000000
N2   N   0.388911626296386   0.444500468891757   0.875000000000000   1.0000000
N2   N   0.888882263480172   0.944424522650141   0.875000000000000   1.0000000
N2   N   0.055896820141143   0.944103179858864   0.375000000000000   1.0000000
N2   N   0.722255509262092   0.444500468891758   0.875000000000000   1.0000000
N2   N   0.387908458375328   0.942955681172938   0.375000000000000   1.0000000
N2   N   0.216426811584086   0.445065513903521   0.375000000000000   1.0000000
N2   N   0.221713889464278   0.612091541624665   0.375000000000000   1.0000000
N2   N   0.722776620480637   0.946193705811389   0.375000000000000   1.0000000
N2   N   0.895305368986072   0.445065513903520   0.375000000000000   1.0000000
N2   N   0.055586310501727   0.611129643844109   0.875000000000000   1.0000000
N2   N   0.222238262860370   0.111098473432833   0.875000000000000   1.0000000
N2   N   0.722255509262092   0.611088373703658   0.875000000000000   1.0000000
N2   N   0.555526877239120   0.111098473432834   0.875000000000000   1.0000000
N2   N   0.888888888888886   0.111111111111114   0.875000000000000   1.0000000
B2   B   0.108095519713094   0.053123103037081   0.375000000000000   1.0000000
B2   B   0.627874577997175   0.589082489327745   0.375000000000000   1.0000000
B2   B   0.443841961543522   0.053383050048562   0.375000000000000   1.0000000
B2   B   0.946616949951489   0.556158038456504   0.375000000000000   1.0000000
B2   B   0.778437447836919   0.055885390585123   0.375000000000000   1.0000000
B2   B   0.111087757188380   0.722210545260844   0.875000000000000   1.0000000
B2   B   0.444424220358002   0.722125100782994   0.875000000000000   1.0000000
B2   B   0.278036192513701   0.222378354681158   0.875000000000000   1.0000000
B2   B   0.777621645318843   0.721963807486294   0.875000000000000   1.0000000
B2   B   0.611008828834112   0.222378354681158   0.875000000000000   1.0000000
B2   B   0.944466365057300   0.222266063447878   0.875000000000000   1.0000000
B2   B   0.277415135340678   0.722584864659307   0.375000000000000   1.0000000
B2   B   0.107839099616990   0.220586216475148   0.375000000000000   1.0000000
B2   B   0.442926299015444   0.219185931364235   0.375000000000000   1.0000000
B2   B   0.612513347233287   0.732191997740965   0.375000000000000   1.0000000
B2   B   0.946616949951494   0.723792244828282   0.375000000000000   1.0000000
B2   B   0.779413783524829   0.220586216475147   0.375000000000000   1.0000000
B2   B   0.111122557098224   0.888877442901755   0.875000000000000   1.0000000
B2   B   0.444421552470208   0.888877442901755   0.875000000000000   1.0000000
B2   B   0.278036192513701   0.388991171165876   0.875000000000000   1.0000000
B2   B   0.610995138378865   0.389004861621116   0.875000000000000   1.0000000
B2   B   0.777690224751723   0.888713782836836   0.875000000000000   1.0000000
B2   B   0.944401833725769   0.388946081174928   0.875000000000000   1.0000000
B2   B   0.108095519713098   0.388305750009334   0.375000000000000   1.0000000
B2   B   0.277415135340678   0.888163604014684   0.375000000000000   1.0000000
B2   B   0.611694249990652   0.891904480286907   0.375000000000000   1.0000000
B2   B   0.410917510672242   0.372125422002789   0.375000000000000   1.0000000
B2   B   0.946876896962950   0.891904480286907   0.375000000000000   1.0000000
B2   B   0.786345317174342   0.387486652766722   0.375000000000000   1.0000000
B2   B   0.277874899217065   0.555575779642029   0.875000000000000   1.0000000
B2   B   0.111210914115827   0.055598166274239   0.875000000000000   1.0000000
B2   B   0.610995138378865   0.555323610091096   0.875000000000000   1.0000000
B2   B   0.444424220358002   0.055632452908405   0.875000000000000   1.0000000
B2   B   0.944367547091600   0.555575779642030   0.875000000000000   1.0000000
B2   B   0.111352365782488   0.556038064898274   0.375000000000000   1.0000000
B2   B   0.777733936552150   0.055533634942731   0.875000000000000   1.0000000
B2   B   0.276207755171670   0.053383050048564   0.375000000000000   1.0000000
B2   B   0.442926299015448   0.557073700984557   0.375000000000000   1.0000000
B2   B   0.780814068635767   0.557073700984557   0.375000000000000   1.0000000
B2   B   0.611694249990652   0.053123103037082   0.375000000000000   1.0000000
B2   B   0.444523744486400   0.555476255513619   0.875000000000000   1.0000000
B2   B   0.944114609414832   0.055885390585123   0.375000000000000   1.0000000
B2   B   0.277789454739156   0.722210545260844   0.875000000000000   1.0000000
B2   B   0.111286217163154   0.222309775248250   0.875000000000000   1.0000000
B2   B   0.444523744486400   0.222380822306144   0.875000000000000   1.0000000
B2   B   0.611008828834112   0.721963807486294   0.875000000000000   1.0000000
B2   B   0.944367547091600   0.722125100782994   0.875000000000000   1.0000000
B2   B   0.777690224751723   0.222309775248250   0.875000000000000   1.0000000
B2   B   0.111836395985317   0.722584864659307   0.375000000000000   1.0000000
B2   B   0.443841961543522   0.723792244828283   0.375000000000000   1.0000000
B2   B   0.267808002259059   0.213654682825665   0.375000000000000   1.0000000
B2   B   0.786345317174340   0.732191997740967   0.375000000000000   1.0000000
B2   B   0.612513347233289   0.213654682825674   0.375000000000000   1.0000000
B2   B   0.944114609414831   0.221562552163086   0.375000000000000   1.0000000
B2   B   0.111210914115827   0.388946081174928   0.875000000000000   1.0000000
B2   B   0.277789454739156   0.888912242811641   0.875000000000000   1.0000000
B2   B   0.611053918825064   0.888789085884157   0.875000000000000   1.0000000
B2   B   0.444676389908921   0.389004861621116   0.875000000000000   1.0000000
B2   B   0.944401833725769   0.888789085884157   0.875000000000000   1.0000000
B2   B   0.111352365782487   0.888647634217531   0.375000000000000   1.0000000
B2   B   0.777621645318843   0.388991171165876   0.875000000000000   1.0000000
B2   B   0.443961935101691   0.888647634217531   0.375000000000000   1.0000000
B2   B   0.267808002259055   0.387486652766721   0.375000000000000   1.0000000
B2   B   0.276207755171671   0.556158038456504   0.375000000000000   1.0000000
B2   B   0.627874577997174   0.372125422002792   0.375000000000000   1.0000000
B2   B   0.779413783524829   0.892160900383026   0.375000000000000   1.0000000
B2   B   0.946876896962946   0.388305750009337   0.375000000000000   1.0000000
B2   B   0.111122557098224   0.555578447529789   0.875000000000000   1.0000000
B2   B   0.277874899217066   0.055632452908405   0.875000000000000   1.0000000
B2   B   0.777619177693864   0.555476255513619   0.875000000000000   1.0000000
B2   B   0.611053918825064   0.055598166274239   0.875000000000000   1.0000000
B2   B   0.944466365057300   0.055533634942731   0.875000000000000   1.0000000
B2   B   0.055542164401148   0.111150381289877   0.124395269839697   1.0000000
B2   B   0.556081300417573   0.610793886831163   0.128489453042805   1.0000000
B2   B   0.389235156150299   0.111803645633943   0.126259464020721   1.0000000
B2   B   0.888196354366060   0.610764843849710   0.126259464020721   1.0000000
B2   B   0.722274883555387   0.111150381289877   0.124395269839697   1.0000000
B2   B   0.055319012092134   0.777685324296705   0.625217121252895   1.0000000
B2   B   0.389032978871205   0.777685324296705   0.625217121252895   1.0000000
B2   B   0.222283771386450   0.277808552359882   0.624990947647140   1.0000000
B2   B   0.722191447640097   0.777716228613570   0.624990947647140   1.0000000
B2   B   0.556081300417573   0.278620746919774   0.621510546957175   1.0000000
B2   B   0.888849618710145   0.277725116444606   0.625604730160304   1.0000000
B2   B   0.222222222222221   0.777777777777779   0.124791079573023   1.0000000
B2   B   0.055542164401147   0.277725116444605   0.124395269839697   1.0000000
B2   B   0.389206113168813   0.278620746919774   0.128489453042805   1.0000000
B2   B   0.555734900258600   0.777650562440559   0.124858732840835   1.0000000
B2   B   0.888582328848564   0.777650562440559   0.124858732840835   1.0000000
B2   B   0.722191447640100   0.277808552359882   0.125009052352823   1.0000000
B2   B   0.055501861296602   0.944498138703417   0.625634757296143   1.0000000
B2   B   0.389032978871218   0.944680987907862   0.625217121252895   1.0000000
B2   B   0.222349437559463   0.444265099741331   0.625141267159182   1.0000000
B2   B   0.555555555555557   0.444444444444443   0.601304044349559   1.0000000
B2   B   0.722274883555387   0.944457835598865   0.625604730160305   1.0000000
B2   B   0.888582328848564   0.444265099741330   0.625141267159183   1.0000000
B2   B   0.055501861296602   0.444337055926545   0.124365242703848   1.0000000
B2   B   0.222314675703321   0.944680987907862   0.124782878747086   1.0000000
B2   B   0.555662944073438   0.944498138703417   0.124365242703848   1.0000000
B2   B   0.389206113168813   0.443918699582393   0.128489453042804   1.0000000
B2   B   0.888849618710145   0.944457835598865   0.124395269839697   1.0000000
B2   B   0.721379253080240   0.443918699582393   0.128489453042807   1.0000000
B2   B   0.222314675703321   0.610967021128785   0.625217121252895   1.0000000
B2   B   0.055542164401148   0.111150381289877   0.625604730160304   1.0000000
B2   B   0.556081300417574   0.610793886831163   0.621510546957176   1.0000000
B2   B   0.389235156150300   0.111803645633943   0.623740535979319   1.0000000
B2   B   0.888196354366060   0.610764843849710   0.623740535979319   1.0000000
B2   B   0.055319012092134   0.610967021128785   0.124782878747086   1.0000000
B2   B   0.722274883555387   0.111150381289877   0.625604730160304   1.0000000
B2   B   0.222349437559463   0.111417671151452   0.124858732840835   1.0000000
B2   B   0.389235156150300   0.610764843849710   0.126259464020721   1.0000000
B2   B   0.721379253080240   0.610793886831163   0.128489453042805   1.0000000
B2   B   0.555734900258600   0.111417671151452   0.124858732840835   1.0000000
B2   B   0.389235156150300   0.610764843849709   0.623740535979320   1.0000000
B2   B   0.888888888888886   0.111111111111114   0.124428956034096   1.0000000
B2   B   0.222222222222221   0.777777777777779   0.625208920426989   1.0000000
B2   B   0.055542164401147   0.277725116444606   0.625604730160304   1.0000000
B2   B   0.389206113168813   0.278620746919774   0.621510546957175   1.0000000
B2   B   0.555734900258600   0.777650562440559   0.625141267159182   1.0000000
B2   B   0.888582328848564   0.777650562440559   0.625141267159186   1.0000000
B2   B   0.722191447640100   0.277808552359882   0.624990947647140   1.0000000
B2   B   0.055319012092134   0.777685324296705   0.124782878747086   1.0000000
B2   B   0.389032978871205   0.777685324296705   0.124782878747086   1.0000000
B2   B   0.222283771386450   0.277808552359882   0.125009052352823   1.0000000
B2   B   0.722191447640097   0.777716228613570   0.125009052352823   1.0000000
B2   B   0.556081300417573   0.278620746919766   0.128489453042805   1.0000000
B2   B   0.888849618710145   0.277725116444605   0.124395269839697   1.0000000
B2   B   0.055501861296602   0.444337055926546   0.625634757296143   1.0000000
B2   B   0.222314675703321   0.944680987907860   0.625217121252895   1.0000000
B2   B   0.555662944073438   0.944498138703418   0.625634757296143   1.0000000
B2   B   0.389206113168813   0.443918699582393   0.621510546957175   1.0000000
B2   B   0.888849618710145   0.944457835598865   0.625604730160304   1.0000000
B2   B   0.055501861296602   0.944498138703417   0.124365242703848   1.0000000
B2   B   0.721379253080240   0.443918699582393   0.621510546957176   1.0000000
B2   B   0.389032978871217   0.944680987907862   0.124782878747086   1.0000000
B2   B   0.222349437559463   0.444265099741330   0.124858732840835   1.0000000
B2   B   0.222314675703321   0.610967021128785   0.124782878747086   1.0000000
B2   B   0.555555555555557   0.444444444444443   0.148695955650427   1.0000000
B2   B   0.722274883555387   0.944457835598865   0.124395269839697   1.0000000
B2   B   0.888582328848564   0.444265099741330   0.124858732840835   1.0000000
B2   B   0.055319012092134   0.610967021128785   0.625217121252895   1.0000000
B2   B   0.222349437559463   0.111417671151452   0.625141267159182   1.0000000
B2   B   0.721379253080240   0.610793886831163   0.621510546957176   1.0000000
B2   B   0.555734900258600   0.111417671151452   0.625141267159182   1.0000000
B2   B   0.888888888888886   0.111111111111114   0.625571043965888   1.0000000


