data_1
_audit_creation_method   'vasp2cif'
_cell_length_a    14.93631414619966
_cell_length_b    14.936314146199727
_cell_length_c    13.341276283792837
_cell_angle_alpha    90.0
_cell_angle_beta    90.0
_cell_angle_gamma    119.99999999999984

_symmetry_space_group_name_H-M    'P 1'
loop_
_atom_site_label
_atom_site_type_symbol
_atom_site_fract_x
_atom_site_fract_y
_atom_site_fract_z
_atom_site_occupancy
O2   O   0.422469800023579   0.377901566678454   0.375000000000000   1.0000000
O2   O   0.581943163834588   0.457638248583958   0.375000000000000   1.0000000
N2   N   0.111100523146361   0.055552079913262   0.125030475521630   1.0000000
N2   N   0.611144002678627   0.555557281577655   0.125551800717975   1.0000000
N2   N   0.444423714787970   0.055564872251246   0.125053934055207   1.0000000
N2   N   0.944470128062306   0.555566026090360   0.124941132595901   1.0000000
N2   N   0.777753710096670   0.055543521715003   0.124962833067700   1.0000000
N2   N   0.111115114282229   0.722224223807779   0.625034436473899   1.0000000
N2   N   0.444423714787970   0.722192175870060   0.624946065944792   1.0000000
N2   N   0.277771651887440   0.222230133031035   0.624524270350340   1.0000000
N2   N   0.777806881844745   0.722235792091202   0.625072834911066   1.0000000
N2   N   0.611107970911461   0.222243541312397   0.624922795190091   1.0000000
N2   N   0.944431247779428   0.222218515158992   0.625055994793362   1.0000000
N2   N   0.277765689909164   0.722210590747695   0.124972841813658   1.0000000
N2   N   0.111089603655893   0.222211468494611   0.125075197638016   1.0000000
N2   N   0.444444434036837   0.222259049131250   0.125449535268540   1.0000000
N2   N   0.611107970911461   0.722197762932393   0.125077204809909   1.0000000
N2   N   0.944470128062306   0.722237435305280   0.124941132595901   1.0000000
N2   N   0.777772331578027   0.222223417351981   0.124941755457727   1.0000000
N2   N   0.111113493225044   0.888891560411220   0.625011330471365   1.0000000
N2   N   0.444415980629520   0.888874656981425   0.625036087503139   1.0000000
N2   N   0.277771651887440   0.388874852189734   0.624524270350340   1.0000000
N2   N   0.611144002678627   0.388920054434300   0.624448199282025   1.0000000
N2   N   0.777772331578027   0.888882247559376   0.625058244542274   1.0000000
N2   N   0.944452044473238   0.388891576838820   0.625063623910972   1.0000000
N2   N   0.111100523146361   0.388881776566427   0.125030475521630   1.0000000
N2   N   0.277765689909164   0.888888432494797   0.124972841813658   1.0000000
N2   N   0.611081497451141   0.888862320179744   0.124976072155278   1.0000000
N2   N   0.444436074687964   0.388884704010647   0.125552551708883   1.0000000
N2   N   0.944452044473238   0.888893800967747   0.124936376089029   1.0000000
N2   N   0.777806881844745   0.388904423086871   0.124927165088934   1.0000000
N2   N   0.277769875308076   0.555539102312130   0.624869279167535   1.0000000
N2   N   0.111100523146361   0.055552079913262   0.624969524478371   1.0000000
N2   N   0.611144002678627   0.555557281577655   0.624448199282025   1.0000000
N2   N   0.444423714787970   0.055564872251246   0.624946065944792   1.0000000
N2   N   0.944470128062306   0.555566026090360   0.625058867404099   1.0000000
N2   N   0.111113493225044   0.555555266147152   0.124988669528634   1.0000000
N2   N   0.777753710096670   0.055543521715003   0.625037166932300   1.0000000
N2   N   0.277769875308076   0.055564106329283   0.125130720832465   1.0000000
N2   N   0.444444434036837   0.555518718238923   0.125449535268540   1.0000000
N2   N   0.777819411868230   0.555576372600783   0.125005225177419   1.0000000
N2   N   0.611081497451141   0.055552510604725   0.124976072155278   1.0000000
N2   N   0.444444434036837   0.555518718238923   0.624550464731460   1.0000000
N2   N   0.944431247779428   0.055546065953771   0.124944005206638   1.0000000
N2   N   0.277765689909164   0.722210590747695   0.625027158186342   1.0000000
N2   N   0.111089603655893   0.222211468494611   0.624924802361984   1.0000000
N2   N   0.444444434036837   0.222259049131250   0.624550464731460   1.0000000
N2   N   0.611107970911461   0.722197762932393   0.624922795190091   1.0000000
N2   N   0.944470128062306   0.722237435305280   0.625058867404099   1.0000000
N2   N   0.777772331578027   0.222223417351981   0.625058244542274   1.0000000
N2   N   0.111115114282229   0.722224223807779   0.124965563526100   1.0000000
N2   N   0.444423714787970   0.722192175870060   0.125053934055207   1.0000000
N2   N   0.277771651887440   0.222230133031035   0.125475729649660   1.0000000
N2   N   0.777806881844745   0.722235792091202   0.124927165088934   1.0000000
N2   N   0.611107970911461   0.222243541312397   0.125077204809909   1.0000000
N2   N   0.944431247779428   0.222218515158992   0.124944005206638   1.0000000
N2   N   0.111100523146361   0.388881776566427   0.624969524478371   1.0000000
N2   N   0.277765689909164   0.888888432494797   0.625027158186342   1.0000000
N2   N   0.611081497451141   0.888862320179744   0.625023927844722   1.0000000
N2   N   0.444436074687964   0.388884704010647   0.624447448291116   1.0000000
N2   N   0.944452044473238   0.888893800967747   0.625063623910972   1.0000000
N2   N   0.111113493225044   0.888891560411220   0.124988669528634   1.0000000
N2   N   0.777806881844745   0.388904423086871   0.625072834911066   1.0000000
N2   N   0.444415980629520   0.888874656981425   0.124963912496861   1.0000000
N2   N   0.277771651887440   0.388874852189734   0.125475729649660   1.0000000
N2   N   0.277769875308076   0.555539102312130   0.125130720832465   1.0000000
N2   N   0.611144002678627   0.388920054434300   0.125551800717975   1.0000000
N2   N   0.777772331578027   0.888882247559376   0.124941755457727   1.0000000
N2   N   0.944452044473238   0.388891576838820   0.124936376089029   1.0000000
N2   N   0.111113493225044   0.555555266147152   0.625011330471365   1.0000000
N2   N   0.277769875308076   0.055564106329283   0.624869279167535   1.0000000
N2   N   0.777819411868230   0.555576372600783   0.624994774822583   1.0000000
N2   N   0.611081497451141   0.055552510604725   0.625023927844722   1.0000000
N2   N   0.944431247779428   0.055546065953771   0.625055994793362   1.0000000
N2   N   0.051551228834497   0.108665211781405   0.375000000000000   1.0000000
N2   N   0.556569642100030   0.606396564842272   0.375000000000000   1.0000000
N2   N   0.389394715521113   0.116059943120781   0.375000000000000   1.0000000
N2   N   0.894280277865725   0.613806805599534   0.375000000000000   1.0000000
N2   N   0.720672698927353   0.110824104685466   0.375000000000000   1.0000000
N2   N   0.055559662099863   0.777780076383000   0.875000000000000   1.0000000
N2   N   0.388900498035035   0.777784286308594   0.875000000000000   1.0000000
N2   N   0.222228827161062   0.277781080247199   0.875000000000000   1.0000000
N2   N   0.722227154397812   0.777781629257388   0.875000000000000   1.0000000
N2   N   0.555566787680195   0.277782275876502   0.875000000000000   1.0000000
N2   N   0.888892881770272   0.277781108458305   0.875000000000000   1.0000000
N2   N   0.224666950617741   0.779000141975538   0.375000000000000   1.0000000
N2   N   0.051551228834497   0.276219350386428   0.375000000000000   1.0000000
N2   N   0.377074706665028   0.275036899062245   0.375000000000000   1.0000000
N2   N   0.555336404734730   0.775273012820051   0.375000000000000   1.0000000
N2   N   0.892183677718360   0.779803067250896   0.375000000000000   1.0000000
N2   N   0.722241315847762   0.278832254726707   0.375000000000000   1.0000000
N2   N   0.055561165188408   0.944448960968313   0.875000000000000   1.0000000
N2   N   0.388900498035035   0.944449545059777   0.875000000000000   1.0000000
N2   N   0.222225281263017   0.444449011356121   0.875000000000000   1.0000000
N2   N   0.555558964884814   0.444446149109071   0.875000000000000   1.0000000
N2   N   0.722229435926549   0.944450107035973   0.875000000000000   1.0000000
N2   N   0.888898562116120   0.444446996935435   0.875000000000000   1.0000000
N2   N   0.055435740988185   0.444495613411931   0.375000000000000   1.0000000
N2   N   0.223893258693105   0.946301161145243   0.375000000000000   1.0000000
N2   N   0.555216178138365   0.944274755735847   0.375000000000000   1.0000000
N2   N   0.377074706665028   0.435371140936118   0.375000000000000   1.0000000
N2   N   0.887260878645422   0.943176665963461   0.375000000000000   1.0000000
N2   N   0.730646987716431   0.447670455442148   0.375000000000000   1.0000000
N2   N   0.222227037859743   0.611116789705222   0.875000000000000   1.0000000
N2   N   0.055555556821344   0.111111487457377   0.875000000000000   1.0000000
N2   N   0.555566787680195   0.611117845137028   0.875000000000000   1.0000000
N2   N   0.388898130523489   0.111116818445600   0.875000000000000   1.0000000
N2   N   0.888893274013329   0.611113303673336   0.875000000000000   1.0000000
N2   N   0.058750690145792   0.612463089643229   0.375000000000000   1.0000000
N2   N   0.722229435926549   0.111112662223911   0.875000000000000   1.0000000
N2   N   0.218593357336554   0.109090940437360   0.375000000000000   1.0000000
N2   N   0.389394715521113   0.606668105733675   0.375000000000000   1.0000000
N2   N   0.730646987716431   0.616309865607619   0.375000000000000   1.0000000
N2   N   0.555336404734730   0.113396725248016   0.375000000000000   1.0000000
N2   N   0.388898130523489   0.611114645411231   0.875000000000000   1.0000000
N2   N   0.886090638800677   0.109711986067010   0.375000000000000   1.0000000
N2   N   0.222230727370193   0.777782030351765   0.875000000000000   1.0000000
N2   N   0.055555556821344   0.277777402697303   0.875000000000000   1.0000000
N2   N   0.388896983715720   0.277779332226957   0.875000000000000   1.0000000
N2   N   0.555563146926831   0.777787350015419   0.875000000000000   1.0000000
N2   N   0.888898562116120   0.777784898514021   0.875000000000000   1.0000000
N2   N   0.722227154397812   0.277778858473760   0.875000000000000   1.0000000
N2   N   0.058750690145792   0.779620933835899   0.375000000000000   1.0000000
N2   N   0.390048175123229   0.776923172808284   0.375000000000000   1.0000000
N2   N   0.214222624772969   0.273777979053152   0.375000000000000   1.0000000
N2   N   0.722241315847762   0.776742394454389   0.375000000000000   1.0000000
N2   N   0.556569642100030   0.283506410591094   0.375000000000000   1.0000000
N2   N   0.887260878645422   0.277417546015298   0.375000000000000   1.0000000
N2   N   0.055561165188408   0.444445537553423   0.875000000000000   1.0000000
N2   N   0.222227037859743   0.944443581487857   0.875000000000000   1.0000000
N2   N   0.555562458409865   0.944447895871596   0.875000000000000   1.0000000
N2   N   0.388896983715720   0.444450984822098   0.875000000000000   1.0000000
N2   N   0.888892881770272   0.944445106645303   0.875000000000000   1.0000000
N2   N   0.055435740988185   0.944273460909582   0.375000000000000   1.0000000
N2   N   0.722228214122090   0.444445912486276   0.875000000000000   1.0000000
N2   N   0.390048175123229   0.946458335648281   0.375000000000000   1.0000000
N2   N   0.218593357336554   0.442835750232531   0.375000000000000   1.0000000
N2   N   0.223893258693105   0.610925430881197   0.375000000000000   1.0000000
N2   N   0.720672698927353   0.943181927575222   0.375000000000000   1.0000000
N2   N   0.892183677718360   0.445713943800800   0.375000000000000   1.0000000
N2   N   0.055559662099863   0.611112919050199   0.875000000000000   1.0000000
N2   N   0.222225281263017   0.111109603240231   0.875000000000000   1.0000000
N2   N   0.722228214122090   0.611115634969150   0.875000000000000   1.0000000
N2   N   0.555563146926831   0.111109130244749   0.875000000000000   1.0000000
N2   N   0.888895654021663   0.111114493677503   0.875000000000000   1.0000000
B2   B   0.107613374078256   0.053692837317062   0.375000000000000   1.0000000
B2   B   0.621911658223326   0.559945384883111   0.375000000000000   1.0000000
B2   B   0.444709725595080   0.058105859488259   0.375000000000000   1.0000000
B2   B   0.948188620383809   0.556993848809695   0.375000000000000   1.0000000
B2   B   0.775331494313773   0.054332413823555   0.375000000000000   1.0000000
B2   B   0.111307429417503   0.722320381375415   0.875000000000000   1.0000000
B2   B   0.444368239779535   0.722065031765710   0.875000000000000   1.0000000
B2   B   0.277674070073774   0.222296573800492   0.875000000000000   1.0000000
B2   B   0.777699101496090   0.722337631018197   0.875000000000000   1.0000000
B2   B   0.611330493165291   0.222312328934313   0.875000000000000   1.0000000
B2   B   0.944330696528100   0.222019288236963   0.875000000000000   1.0000000
B2   B   0.279265473797318   0.722416814000087   0.375000000000000   1.0000000
B2   B   0.103464589172165   0.218398961252747   0.375000000000000   1.0000000
B2   B   0.445950370138224   0.227296906437489   0.375000000000000   1.0000000
B2   B   0.611202839159999   0.719767919629397   0.375000000000000   1.0000000
B2   B   0.948188620383809   0.724528104907450   0.375000000000000   1.0000000
B2   B   0.776354380884725   0.221912408296682   0.375000000000000   1.0000000
B2   B   0.111010719084790   0.888975394935840   0.875000000000000   1.0000000
B2   B   0.444656353137000   0.888994843235165   0.875000000000000   1.0000000
B2   B   0.277674070073774   0.388710829606612   0.875000000000000   1.0000000
B2   B   0.611047780254895   0.388986155551965   0.875000000000000   1.0000000
B2   B   0.777688332273062   0.888707143899574   0.875000000000000   1.0000000
B2   B   0.944633591735584   0.388983424123566   0.875000000000000   1.0000000
B2   B   0.107613374078256   0.387253870094523   0.375000000000000   1.0000000
B2   B   0.279265473797318   0.890181993130560   0.375000000000000   1.0000000
B2   B   0.610042885519059   0.887473325388905   0.375000000000000   1.0000000
B2   B   0.944893353378286   0.889592685886579   0.375000000000000   1.0000000
B2   B   0.782298518674540   0.389973598055202   0.375000000000000   1.0000000
B2   B   0.277965480323867   0.555670009152674   0.875000000000000   1.0000000
B2   B   0.110992644918236   0.055340893947511   0.875000000000000   1.0000000
B2   B   0.611047780254895   0.555394958036259   0.875000000000000   1.0000000
B2   B   0.444368239779535   0.055636541347160   0.875000000000000   1.0000000
B2   B   0.944353640267928   0.555655551606041   0.875000000000000   1.0000000
B2   B   0.112647088978044   0.555790900068460   0.375000000000000   1.0000000
B2   B   0.777974349362630   0.055653841347982   0.875000000000000   1.0000000
B2   B   0.277601789247748   0.056753601132932   0.375000000000000   1.0000000
B2   B   0.445950370138224   0.551986797034071   0.375000000000000   1.0000000
B2   B   0.784602231210968   0.558967782272152   0.375000000000000   1.0000000
B2   B   0.610042885519059   0.055902893463481   0.375000000000000   1.0000000
B2   B   0.444370690807183   0.555684926806019   0.875000000000000   1.0000000
B2   B   0.940741416690070   0.053502083486176   0.375000000000000   1.0000000
B2   B   0.277688123990944   0.722332962596866   0.875000000000000   1.0000000
B2   B   0.111262861865730   0.222298097599529   0.875000000000000   1.0000000
B2   B   0.444370690807183   0.222019097334499   0.875000000000000   1.0000000
B2   B   0.611330493165291   0.722351497564306   0.875000000000000   1.0000000
B2   B   0.944353640267928   0.722031421995222   0.875000000000000   1.0000000
B2   B   0.777688332273062   0.222314521706817   0.875000000000000   1.0000000
B2   B   0.113826421747024   0.723579877540176   0.375000000000000   1.0000000
B2   B   0.444709725595080   0.719937199440157   0.375000000000000   1.0000000
B2   B   0.266413161969695   0.217005468881768   0.375000000000000   1.0000000
B2   B   0.782298518674540   0.725658253952669   0.375000000000000   1.0000000
B2   B   0.611202839159999   0.224768252863931   0.375000000000000   1.0000000
B2   B   0.940741416690070   0.220572666537230   0.375000000000000   1.0000000
B2   B   0.110992644918236   0.388985084304055   0.875000000000000   1.0000000
B2   B   0.277688123990944   0.888688494727406   0.875000000000000   1.0000000
B2   B   0.611029040419710   0.889004517229317   0.875000000000000   1.0000000
B2   B   0.444655491554305   0.388994412443817   0.875000000000000   1.0000000
B2   B   0.944633591735584   0.888983500945348   0.875000000000000   1.0000000
B2   B   0.112647088978044   0.890189522242913   0.375000000000000   1.0000000
B2   B   0.777699101496090   0.388694803811220   0.875000000000000   1.0000000
B2   B   0.444681993960421   0.889007663646875   0.375000000000000   1.0000000
B2   B   0.266413161969695   0.382741026421255   0.375000000000000   1.0000000
B2   B   0.277601789247748   0.554181521448152   0.375000000000000   1.0000000
B2   B   0.621911658223326   0.395299606673544   0.375000000000000   1.0000000
B2   B   0.776354380884725   0.887775305921371   0.375000000000000   1.0000000
B2   B   0.944893353378286   0.388634000825035   0.375000000000000   1.0000000
B2   B   0.111010719084790   0.555368657482279   0.875000000000000   1.0000000
B2   B   0.277965480323867   0.055628804504529   0.875000000000000   1.0000000
B2   B   0.777997280022527   0.555665306677931   0.875000000000000   1.0000000
B2   B   0.611029040419710   0.055357856523721   0.875000000000000   1.0000000
B2   B   0.944330696528100   0.055644741624473   0.875000000000000   1.0000000
B2   B   0.055436896732324   0.111011326717242   0.125031182296041   1.0000000
B2   B   0.555676055790786   0.611201504956614   0.125263001603792   1.0000000
B2   B   0.388864716413888   0.111012355104722   0.125057841157650   1.0000000
B2   B   0.888979845052161   0.611156589192753   0.125035084615111   1.0000000
B2   B   0.722216709696867   0.111106727008930   0.125115812874469   1.0000000
B2   B   0.055551486488300   0.777750127109976   0.624882673662638   1.0000000
B2   B   0.388854167790363   0.777795942102988   0.624902286529131   1.0000000
B2   B   0.222071094485953   0.277702213909644   0.625058060206106   1.0000000
B2   B   0.722291306651620   0.777822213088099   0.624964155594484   1.0000000
B2   B   0.555676055790786   0.277807884167507   0.624736998396208   1.0000000
B2   B   0.888865419991392   0.277787475395363   0.624916862831858   1.0000000
B2   B   0.222181369266634   0.777757351299985   0.125048132438150   1.0000000
B2   B   0.055436896732324   0.277758903348418   0.125031182296041   1.0000000
B2   B   0.388914573241987   0.277770671756626   0.124971856000935   1.0000000
B2   B   0.555574667724242   0.777819196810132   0.125101792910006   1.0000000
B2   B   0.888940958235375   0.777788957753579   0.125067735237067   1.0000000
B2   B   0.722291306651620   0.277802426896856   0.125035844405517   1.0000000
B2   B   0.055498790248142   0.944355947879863   0.624971873298482   1.0000000
B2   B   0.388854167790363   0.944391559020710   0.624902286529131   1.0000000
B2   B   0.222108970269956   0.444488161750401   0.624927782727870   1.0000000
B2   B   0.555668937729959   0.444501135531644   0.624553867572099   1.0000000
B2   B   0.722216709696867   0.944443316021274   0.624884187125531   1.0000000
B2   B   0.888940958235375   0.444485333815132   0.624932264762933   1.0000000
B2   B   0.055498790248142   0.444476175701607   0.125028126701518   1.0000000
B2   B   0.222161248154399   0.944338023486058   0.125095252450034   1.0000000
B2   B   0.555538452211429   0.944435892772379   0.125050849789523   1.0000000
B2   B   0.388914573241987   0.444477234818696   0.124971856000935   1.0000000
B2   B   0.888865419991392   0.944411277929365   0.125083137168142   1.0000000
B2   B   0.722383101719170   0.444517661118313   0.125187942204820   1.0000000
B2   B   0.222161248154399   0.611156558001677   0.624904747549966   1.0000000
B2   B   0.055436896732324   0.111011326717242   0.624968817703958   1.0000000
B2   B   0.555676055790786   0.611201504956614   0.624736998396208   1.0000000
B2   B   0.388864716413888   0.111012355104722   0.624942158842351   1.0000000
B2   B   0.888979845052161   0.611156589192753   0.624964915384888   1.0000000
B2   B   0.055551486488300   0.611134692711658   0.125117326337361   1.0000000
B2   B   0.722216709696867   0.111106727008930   0.624884187125531   1.0000000
B2   B   0.222108970269956   0.110954141852891   0.125072217272130   1.0000000
B2   B   0.388864716413888   0.611185694642509   0.125057841157650   1.0000000
B2   B   0.722383101719170   0.611198773934193   0.125187942204820   1.0000000
B2   B   0.555574667724242   0.111088804247445   0.125101792910006   1.0000000
B2   B   0.388864716413888   0.611185694642509   0.624942158842351   1.0000000
B2   B   0.888829996455448   0.111081664894395   0.125030736749479   1.0000000
B2   B   0.222181369266634   0.777757351299985   0.624951867561850   1.0000000
B2   B   0.055436896732324   0.277758903348418   0.624968817703958   1.0000000
B2   B   0.388914573241987   0.277770671756626   0.625028143999065   1.0000000
B2   B   0.555574667724242   0.777819196810132   0.624898207089994   1.0000000
B2   B   0.888940958235375   0.777788957753579   0.624932264762933   1.0000000
B2   B   0.722291306651620   0.277802426896856   0.624964155594484   1.0000000
B2   B   0.055551486488300   0.777750127109976   0.125117326337361   1.0000000
B2   B   0.388854167790363   0.777795942102988   0.125097713470869   1.0000000
B2   B   0.222071094485953   0.277702213909644   0.124941939793894   1.0000000
B2   B   0.722291306651620   0.777822213088099   0.125035844405517   1.0000000
B2   B   0.555676055790786   0.277807884167507   0.125263001603792   1.0000000
B2   B   0.888865419991392   0.277787475395363   0.125083137168142   1.0000000
B2   B   0.055498790248142   0.444476175701607   0.624971873298482   1.0000000
B2   B   0.222161248154399   0.944338023486058   0.624904747549966   1.0000000
B2   B   0.555538452211429   0.944435892772379   0.624949150210478   1.0000000
B2   B   0.388914573241987   0.444477234818696   0.625028143999065   1.0000000
B2   B   0.888865419991392   0.944411277929365   0.624916862831858   1.0000000
B2   B   0.055498790248142   0.944355947879863   0.125028126701518   1.0000000
B2   B   0.722383101719170   0.444517661118313   0.624812057795180   1.0000000
B2   B   0.388854167790363   0.944391559020710   0.125097713470869   1.0000000
B2   B   0.222108970269956   0.444488161750401   0.125072217272130   1.0000000
B2   B   0.222161248154399   0.611156558001677   0.125095252450034   1.0000000
B2   B   0.555668937729959   0.444501135531644   0.125446132427902   1.0000000
B2   B   0.722216709696867   0.944443316021274   0.125115812874469   1.0000000
B2   B   0.888940958235375   0.444485333815132   0.125067735237067   1.0000000
B2   B   0.055551486488300   0.611134692711658   0.624882673662638   1.0000000
B2   B   0.222108970269956   0.110954141852891   0.624927782727870   1.0000000
B2   B   0.722383101719170   0.611198773934193   0.624812057795180   1.0000000
B2   B   0.555574667724242   0.111088804247445   0.624898207089994   1.0000000
B2   B   0.888829996455448   0.111081664894395   0.624969263250521   1.0000000


