data_1
_audit_creation_method   'vasp2cif'
_cell_length_a    17.52789999999977
_cell_length_b    17.52789999999977
_cell_length_c    15.0
_cell_angle_alpha    90.0
_cell_angle_beta    90.0
_cell_angle_gamma    119.99999999999916

_symmetry_space_group_name_H-M    'P 1'
loop_
_atom_site_label
_atom_site_type_symbol
_atom_site_fract_x
_atom_site_fract_y
_atom_site_fract_z
_atom_site_occupancy
B2   B   0.905428909779778   0.953104271504611   0.110989619512763   1.0000000
B2   B   0.904730877927092   0.095271143268899   0.111037708891789   1.0000000
B2   B   0.904617618524484   0.237842245039296   0.110804576981607   1.0000000
B2   B   0.905166591713891   0.380818645584174   0.110751823784212   1.0000000
B2   B   0.906436113755049   0.524149028352477   0.110837175529692   1.0000000
B2   B   0.905465913551574   0.667219295092163   0.111119055677300   1.0000000
B2   B   0.904832732286350   0.809644700408587   0.111101051718123   1.0000000
B2   B   0.047497709638369   0.952504311557613   0.110903364226552   1.0000000
B2   B   0.046897749691360   0.094573111416233   0.110989619512763   1.0000000
B2   B   0.046487735081843   0.237396625167616   0.110876024617796   1.0000000
B2   B   0.046383163737875   0.380803913860281   0.110801803206209   1.0000000
B2   B   0.046799945859157   0.524348564449554   0.110874516595877   1.0000000
B2   B   0.047561093180651   0.667349935732269   0.111006072318623   1.0000000
B2   B   0.047530710279817   0.809972845708784   0.110770441336484   1.0000000
B2   B   0.190029175487256   0.952471310916214   0.110770441336484   1.0000000
B2   B   0.190357320787361   0.095169288909650   0.111101051718123   1.0000000
B2   B   0.187836774330978   0.235667310438409   0.111001826849953   1.0000000
B2   B   0.187356148359225   0.380039720202747   0.110850069309570   1.0000000
B2   B   0.186773542412278   0.524497515953231   0.110930944042416   1.0000000
B2   B   0.189601945634930   0.667620269423329   0.110943008344133   1.0000000
B2   B   0.189892262066719   0.810109759129264   0.110907850038405   1.0000000
B2   B   0.332652085464740   0.952440928015320   0.111006072318623   1.0000000
B2   B   0.332782726104831   0.094536107644412   0.111119055677300   1.0000000
B2   B   0.333711493601925   0.237991138439115   0.111233512358379   1.0000000
B2   B   0.326744820571715   0.377059107972826   0.111885181788145   1.0000000
B2   B   0.325219250068980   0.523921095619460   0.111884905884633   1.0000000
B2   B   0.332005038258246   0.667996982938740   0.110935690969414   1.0000000
B2   B   0.332381751773664   0.810400075561019   0.110943008344133   1.0000000
B2   B   0.475653456747471   0.953202075336802   0.110874516595877   1.0000000
B2   B   0.475852992844482   0.093565907440962   0.110837175529693   1.0000000
B2   B   0.476147779539179   0.233174965609974   0.111086584396455   1.0000000
B2   B   0.478084342935400   0.371855038663076   0.110898769094672   1.0000000
B2   B   0.476080925577519   0.674782771127991   0.111884905884634   1.0000000
B2   B   0.475504505243794   0.813228478783771   0.110930944042416   1.0000000
B2   B   0.619198107335745   0.953618857458130   0.110801803206209   1.0000000
B2   B   0.619183375611799   0.094835429482093   0.110751823784212   1.0000000
B2   B   0.619824502967664   0.236204197993803   0.111134315172141   1.0000000
B2   B   0.621904532382853   0.378097488813165   0.110838551278025   1.0000000
B2   B   0.628146982532926   0.521917678261540   0.110898769094672   1.0000000
B2   B   0.622942913223199   0.673257200625176   0.111885181788145   1.0000000
B2   B   0.619962300993228   0.812645872836746   0.110850069309570   1.0000000
B2   B   0.762605396028405   0.953514286114155   0.110876024617796   1.0000000
B2   B   0.762159776156712   0.095384402671543   0.110804576981607   1.0000000
B2   B   0.762481693304722   0.237520327891222   0.110762487536805   1.0000000
B2   B   0.763797823202148   0.380177518228305   0.111134315172141   1.0000000
B2   B   0.766827055586086   0.523854241657793   0.111086584396455   1.0000000
B2   B   0.762010882756905   0.666290527595086   0.111233512358379   1.0000000
B2   B   0.764334710757589   0.812165246865078   0.111001826849953   1.0000000
N2   N   0.952392394557618   0.904905844539463   0.111154594916335   1.0000000
N2   N   0.952283285408320   0.047718116509744   0.110678389261608   1.0000000
N2   N   0.951784629711545   0.190109963763557   0.111155093484136   1.0000000
N2   N   0.951782884697671   0.332859200456085   0.110890041238935   1.0000000
N2   N   0.952463025969738   0.476015147727966   0.110438180133591   1.0000000
N2   N   0.952649065025217   0.619352656498670   0.110943877076105   1.0000000
N2   N   0.952487766523878   0.762233341345463   0.111099560341867   1.0000000
N2   N   0.094996098449964   0.905005303468028   0.110381855783394   1.0000000
N2   N   0.095095557378559   0.047609007360331   0.111154594916335   1.0000000
N2   N   0.093423560961810   0.189045162055655   0.111040377228366   1.0000000
N2   N   0.092926115044134   0.332369998101249   0.110431925283374   1.0000000
N2   N   0.092645892272616   0.476055605250284   0.111049987376267   1.0000000
N2   N   0.094537273582031   0.619582045357020   0.111114646990413   1.0000000
N2   N   0.094875426847552   0.762432342530485   0.110903134755689   1.0000000
N2   N   0.237569059387515   0.905125975070460   0.110903134755689   1.0000000
N2   N   0.237768060572537   0.047513635394085   0.111099560341867   1.0000000
N2   N   0.238152151975811   0.190378018880325   0.110981018347425   1.0000000
N2   N   0.232833306417394   0.329409584950596   0.111090525845095   1.0000000
N2   N   0.231448703415535   0.475670232453339   0.111060926917009   1.0000000
N2   N   0.236504743976203   0.619939741658473   0.110758515664636   1.0000000
N2   N   0.237265047078407   0.762736354839573   0.110895785545067   1.0000000
N2   N   0.380419356560986   0.905464128335879   0.111114646990413   1.0000000
N2   N   0.380648745419328   0.047352336892806   0.110943877076105   1.0000000
N2   N   0.381015164888484   0.189608235535869   0.111171911208406   1.0000000
N2   N   0.382757574332751   0.334357823053469   0.111538871918941   1.0000000
N2   N   0.360611203933175   0.468165686906535   0.112814437092391   1.0000000
N2   N   0.379392711077364   0.620608690840577   0.111553000976770   1.0000000
N2   N   0.380061660259411   0.763496657941755   0.110758515664636   1.0000000
N2   N   0.523945796666701   0.907355509645376   0.111049987376267   1.0000000
N2   N   0.523986254188995   0.047538375948312   0.110438180133591   1.0000000
N2   N   0.524511619111429   0.187801554137910   0.111124935698291   1.0000000
N2   N   0.525820364087404   0.326916652587476   0.110746671567102   1.0000000
N2   N   0.531835715010431   0.639390197984810   0.112814437092391   1.0000000
N2   N   0.524331169463639   0.768552698502458   0.111060926917009   1.0000000
N2   N   0.667631403815711   0.907075286873869   0.110431925283381   1.0000000
N2   N   0.667142201460950   0.048218517220312   0.110890041238935   1.0000000
N2   N   0.667438285866062   0.189621250627599   0.110976693710664   1.0000000
N2   N   0.668683324555277   0.331318077361716   0.111203097796887   1.0000000
N2   N   0.673084749329475   0.474181037829566   0.110746671567098   1.0000000
N2   N   0.665643578863484   0.617243827585283   0.111538871918939   1.0000000
N2   N   0.670591816966422   0.767168095500612   0.111090525845094   1.0000000
N2   N   0.810956239862320   0.906577840956163   0.111040377228366   1.0000000
N2   N   0.809891438154444   0.048216772206423   0.111155093484136   1.0000000
N2   N   0.809766434432349   0.190234967485642   0.110321179597726   1.0000000
N2   N   0.810380151290401   0.332563116050930   0.110976693710664   1.0000000
N2   N   0.812199847780121   0.475489782805550   0.111124935698284   1.0000000
N2   N   0.810393166382099   0.618986237029531   0.111171911208406   1.0000000
N2   N   0.809623383037663   0.761849249942203   0.110981018347426   1.0000000
Ge2   Ge   0.476596736377322   0.523405284819697   0.111170252649511   1.0000000
O2   O   0.538954468206476   0.461046933710522   0.109836374819591   1.0000000


