data_1
_audit_creation_method   'vasp2cif'
_cell_length_a    14.93631414619966
_cell_length_b    14.936314146199727
_cell_length_c    13.341276283792837
_cell_angle_alpha    90.0
_cell_angle_beta    90.0
_cell_angle_gamma    119.99999999999984

_symmetry_space_group_name_H-M    'P 1'
loop_
_atom_site_label
_atom_site_type_symbol
_atom_site_fract_x
_atom_site_fract_y
_atom_site_fract_z
_atom_site_occupancy
C2   C   0.436534190447010   0.376393246293366   0.375000000000000   1.0000000
C2   C   0.546583133174792   0.406876263051812   0.375000000000000   1.0000000
N2   N   0.111099464788490   0.055565697423799   0.125171531917830   1.0000000
N2   N   0.611161357529569   0.555544287207380   0.125750813576094   1.0000000
N2   N   0.444453496016680   0.055611483832333   0.125416452909005   1.0000000
N2   N   0.944513000746662   0.555606499628365   0.125177361261002   1.0000000
N2   N   0.777744154126952   0.055570928699882   0.125183021394551   1.0000000
N2   N   0.111149221963224   0.722257358058398   0.624851018441518   1.0000000
N2   N   0.444436391218836   0.722201266114826   0.624670803684111   1.0000000
N2   N   0.277781576702075   0.222230637885331   0.624366864638546   1.0000000
N2   N   0.777809341046969   0.722242978495046   0.624636887120213   1.0000000
N2   N   0.611137305268207   0.222327663702586   0.624279781444701   1.0000000
N2   N   0.944452001762743   0.222240483717736   0.624913375257448   1.0000000
N2   N   0.277791926380590   0.722233513311543   0.125172081658948   1.0000000
N2   N   0.111113642181581   0.222225193605962   0.125230733030954   1.0000000
N2   N   0.444478615063676   0.222292436858373   0.125816102024694   1.0000000
N2   N   0.611102077753081   0.722186198443391   0.125500574460694   1.0000000
N2   N   0.944497535720770   0.722276766418664   0.125191308734765   1.0000000
N2   N   0.777792949007790   0.222273104417153   0.125301405779566   1.0000000
N2   N   0.111133217487438   0.888926405286432   0.624836599787181   1.0000000
N2   N   0.444432341064784   0.888907172617237   0.624806026380317   1.0000000
N2   N   0.277820163519433   0.388887812027824   0.624303296302509   1.0000000
N2   N   0.611227070345415   0.388982885338330   0.625104701694523   1.0000000
N2   N   0.777751444066993   0.888883780355294   0.624792845114488   1.0000000
N2   N   0.944498224806451   0.388926023874173   0.624860272009480   1.0000000
N2   N   0.111145048160732   0.388903828083179   0.125202250036601   1.0000000
N2   N   0.277793430346143   0.888923226845988   0.125181538012329   1.0000000
N2   N   0.611073956112118   0.888883901360378   0.125239169772245   1.0000000
N2   N   0.444488729616211   0.388885966668363   0.125852385449961   1.0000000
N2   N   0.944450888517368   0.888916295469678   0.125116246221975   1.0000000
N2   N   0.777866266579496   0.388945636715147   0.125296111585849   1.0000000
N2   N   0.277804268679669   0.555550612052604   0.624633847207118   1.0000000
N2   N   0.111099464788490   0.055565697423799   0.624828468082162   1.0000000
N2   N   0.611161357529570   0.555544287207380   0.624249186423896   1.0000000
N2   N   0.444453496016680   0.055611483832333   0.624583547090986   1.0000000
N2   N   0.944513000746662   0.555606499628365   0.624822638739006   1.0000000
N2   N   0.111151464688350   0.555580229647269   0.125155227517725   1.0000000
N2   N   0.777744154126952   0.055570928699882   0.624816978605468   1.0000000
N2   N   0.277792738994599   0.055595411154457   0.125371869572547   1.0000000
N2   N   0.444470633295727   0.555517375917135   0.125804989831655   1.0000000
N2   N   0.777869348277915   0.555640380024332   0.125316932383710   1.0000000
N2   N   0.611085707916023   0.055606086233657   0.125354720198342   1.0000000
N2   N   0.444470633295727   0.555517375917135   0.624195010168347   1.0000000
N2   N   0.944422272375106   0.055560094217919   0.125079674484825   1.0000000
N2   N   0.277791926380590   0.722233513311543   0.624827918341057   1.0000000
N2   N   0.111113642181581   0.222225193605962   0.624769266969049   1.0000000
N2   N   0.444478615063676   0.222292436858373   0.624183897975314   1.0000000
N2   N   0.611102077753082   0.722186198443391   0.624499425539315   1.0000000
N2   N   0.944497535720770   0.722276766418664   0.624808691265256   1.0000000
N2   N   0.777792949007790   0.222273104417153   0.624698594220424   1.0000000
N2   N   0.111149221963224   0.722257358058398   0.125148981558483   1.0000000
N2   N   0.444436391218836   0.722201266114826   0.125329196315898   1.0000000
N2   N   0.277781576702075   0.222230637885331   0.125633135361452   1.0000000
N2   N   0.777809341046969   0.722242978495046   0.125363112879786   1.0000000
N2   N   0.611137305268207   0.222327663702586   0.125720218555305   1.0000000
N2   N   0.944452001762743   0.222240483717736   0.125086624742544   1.0000000
N2   N   0.111145048160732   0.388903828083179   0.624797749963392   1.0000000
N2   N   0.277793430346143   0.888923226845988   0.624818461987671   1.0000000
N2   N   0.611073956112118   0.888883901360378   0.624760830227760   1.0000000
N2   N   0.444488729616211   0.388885966668363   0.624147614550037   1.0000000
N2   N   0.944450888517368   0.888916295469678   0.624883753778018   1.0000000
N2   N   0.111133217487438   0.888926405286432   0.125163400212826   1.0000000
N2   N   0.777866266579496   0.388945636715147   0.624703888414128   1.0000000
N2   N   0.444432341064784   0.888907172617237   0.125193973619672   1.0000000
N2   N   0.277820163519433   0.388887812027824   0.125696703697494   1.0000000
N2   N   0.277804268679669   0.555550612052604   0.125366152792859   1.0000000
N2   N   0.611227070345415   0.388982885338330   0.124895298305477   1.0000000
N2   N   0.777751444066993   0.888883780355294   0.125207154885528   1.0000000
N2   N   0.944498224806451   0.388926023874173   0.125139727990503   1.0000000
N2   N   0.111151464688350   0.555580229647269   0.624844772482285   1.0000000
N2   N   0.277792738994599   0.055595411154457   0.624628130427469   1.0000000
N2   N   0.777869348277915   0.555640380024332   0.624683067616286   1.0000000
N2   N   0.611085707916023   0.055606086233657   0.624645279801638   1.0000000
N2   N   0.944422272375106   0.055560094217919   0.624920325515157   1.0000000
N2   N   0.051425621674412   0.109200719317686   0.375000000000000   1.0000000
N2   N   0.557377595567523   0.600976431972968   0.375000000000000   1.0000000
N2   N   0.388268917894672   0.115399990803901   0.375000000000000   1.0000000
N2   N   0.895026127255204   0.614560729145658   0.375000000000000   1.0000000
N2   N   0.720277721374601   0.113680809572354   0.375000000000000   1.0000000
N2   N   0.055538558098775   0.777761669065225   0.875000000000000   1.0000000
N2   N   0.388879217785712   0.777763097992254   0.875000000000000   1.0000000
N2   N   0.222203072863170   0.277757765133499   0.875000000000000   1.0000000
N2   N   0.722202707656971   0.777758122745919   0.875000000000000   1.0000000
N2   N   0.555536254162551   0.277754399006507   0.875000000000000   1.0000000
N2   N   0.888869790670007   0.277759741441960   0.875000000000000   1.0000000
N2   N   0.225897369927596   0.779774934657212   0.375000000000000   1.0000000
N2   N   0.052723998426244   0.277117035666432   0.375000000000000   1.0000000
N2   N   0.377640048906450   0.274163432740673   0.375000000000000   1.0000000
N2   N   0.556462251993788   0.775173253697934   0.375000000000000   1.0000000
N2   N   0.888593067826656   0.776789055019532   0.375000000000000   1.0000000
N2   N   0.720554366774661   0.282322438147797   0.375000000000000   1.0000000
N2   N   0.055535647437271   0.944429052912333   0.875000000000000   1.0000000
N2   N   0.388880064588397   0.944431748444272   0.875000000000000   1.0000000
N2   N   0.222205344481829   0.444421816188791   0.875000000000000   1.0000000
N2   N   0.555532722730494   0.444425659246306   0.875000000000000   1.0000000
N2   N   0.722204839168129   0.944426518872401   0.875000000000000   1.0000000
N2   N   0.888871949978154   0.444426414293168   0.875000000000000   1.0000000
N2   N   0.058384265252690   0.445153478441371   0.375000000000000   1.0000000
N2   N   0.223263446774456   0.946091913423866   0.375000000000000   1.0000000
N2   N   0.556084312340566   0.948168336454795   0.375000000000000   1.0000000
N2   N   0.390733464178489   0.435891037264096   0.375000000000000   1.0000000
N2   N   0.886268028857992   0.942932930368533   0.375000000000000   1.0000000
N2   N   0.740722022202396   0.454720211381438   0.375000000000000   1.0000000
N2   N   0.222207484819422   0.611090141393891   0.875000000000000   1.0000000
N2   N   0.055533860288638   0.111090222869833   0.875000000000000   1.0000000
N2   N   0.555536341835196   0.611089122824510   0.875000000000000   1.0000000
N2   N   0.388876415369075   0.111094550931633   0.875000000000000   1.0000000
N2   N   0.888870498055847   0.611091459958594   0.875000000000000   1.0000000
N2   N   0.060437873003880   0.613172893247328   0.375000000000000   1.0000000
N2   N   0.722203575943275   0.111092079298782   0.875000000000000   1.0000000
N2   N   0.217475103233797   0.108696547822868   0.375000000000000   1.0000000
N2   N   0.392091307379463   0.607151188397324   0.375000000000000   1.0000000
N2   N   0.722920760159243   0.608439839988000   0.375000000000000   1.0000000
N2   N   0.555621298161851   0.123265060610544   0.375000000000000   1.0000000
N2   N   0.388876455362087   0.611088803944532   0.875000000000000   1.0000000
N2   N   0.885797244731600   0.110760691702565   0.375000000000000   1.0000000
N2   N   0.222210406487034   0.777762934921956   0.875000000000000   1.0000000
N2   N   0.055534797279790   0.277756815909990   0.875000000000000   1.0000000
N2   N   0.388872157785505   0.277759861513902   0.875000000000000   1.0000000
N2   N   0.555540760999934   0.777759409042403   0.875000000000000   1.0000000
N2   N   0.888869604535534   0.777761694839343   0.875000000000000   1.0000000
N2   N   0.722202948780567   0.277756508491063   0.875000000000000   1.0000000
N2   N   0.058569069564556   0.779526553501543   0.375000000000000   1.0000000
N2   N   0.391775064363471   0.778237082644689   0.375000000000000   1.0000000
N2   N   0.216426514783696   0.275050733172541   0.375000000000000   1.0000000
N2   N   0.721295058087211   0.775255904613369   0.375000000000000   1.0000000
N2   N   0.548266747025774   0.304654212239776   0.375000000000000   1.0000000
N2   N   0.887174989557472   0.278856057181155   0.375000000000000   1.0000000
N2   N   0.055536048167981   0.444424673336444   0.875000000000000   1.0000000
N2   N   0.222208056362828   0.944431072086893   0.875000000000000   1.0000000
N2   N   0.555542051954834   0.944429455431421   0.875000000000000   1.0000000
N2   N   0.388873587579774   0.444424886899553   0.875000000000000   1.0000000
N2   N   0.888870244645963   0.944427201019192   0.875000000000000   1.0000000
N2   N   0.053535978082073   0.943063493948129   0.375000000000000   1.0000000
N2   N   0.722204081951090   0.444424276199098   0.875000000000000   1.0000000
N2   N   0.391188386987108   0.948455492282842   0.375000000000000   1.0000000
N2   N   0.224187072252102   0.442941864003230   0.375000000000000   1.0000000
N2   N   0.226210016516600   0.611335010643695   0.375000000000000   1.0000000
N2   N   0.720561723183032   0.944224068684747   0.375000000000000   1.0000000
N2   N   0.894344805936092   0.447311436197797   0.375000000000000   1.0000000
N2   N   0.055539237582119   0.611091387334894   0.875000000000000   1.0000000
N2   N   0.222203062586161   0.111093786517071   0.875000000000000   1.0000000
N2   N   0.722198886006584   0.611089710095748   0.875000000000000   1.0000000
N2   N   0.555540906425191   0.111091788092314   0.875000000000000   1.0000000
N2   N   0.888869739014002   0.111090910281392   0.875000000000000   1.0000000
B2   B   0.106468536627570   0.053116901825235   0.375000000000000   1.0000000
B2   B   0.613976890796196   0.543198150663152   0.375000000000000   1.0000000
B2   B   0.444870127804407   0.060437446240799   0.375000000000000   1.0000000
B2   B   0.949787135250224   0.558273132041043   0.375000000000000   1.0000000
B2   B   0.774879817162920   0.055916837483012   0.375000000000000   1.0000000
B2   B   0.111091027164137   0.722200666705143   0.875000000000000   1.0000000
B2   B   0.444435548127335   0.722226602583639   0.875000000000000   1.0000000
B2   B   0.277734379754357   0.222180678993016   0.875000000000000   1.0000000
B2   B   0.777775510405394   0.722217923694595   0.875000000000000   1.0000000
B2   B   0.611116786494928   0.222195107606350   0.875000000000000   1.0000000
B2   B   0.944405355880617   0.222195725728367   0.875000000000000   1.0000000
B2   B   0.280865387757867   0.723071677823670   0.375000000000000   1.0000000
B2   B   0.105234822996079   0.219713077894992   0.375000000000000   1.0000000
B2   B   0.439695139722893   0.225328905827931   0.375000000000000   1.0000000
B2   B   0.611043994374766   0.716861840506759   0.375000000000000   1.0000000
B2   B   0.947893130471510   0.724659501665618   0.375000000000000   1.0000000
B2   B   0.775617260974157   0.224494594808382   0.375000000000000   1.0000000
B2   B   0.111080764302168   0.888856517747979   0.875000000000000   1.0000000
B2   B   0.444436765979627   0.888872922872236   0.875000000000000   1.0000000
B2   B   0.277736048593470   0.388871266579786   0.875000000000000   1.0000000
B2   B   0.611131117329467   0.388876285214167   0.875000000000000   1.0000000
B2   B   0.777763853073300   0.888881138616632   0.875000000000000   1.0000000
B2   B   0.944420974434337   0.388873165218173   0.875000000000000   1.0000000
B2   B   0.111907236315347   0.388210464651403   0.375000000000000   1.0000000
B2   B   0.279939424808952   0.891150753419363   0.375000000000000   1.0000000
B2   B   0.610081198406192   0.888878375509093   0.375000000000000   1.0000000
B2   B   0.942462864388134   0.887670194358333   0.375000000000000   1.0000000
B2   B   0.783541609749820   0.391623334982008   0.375000000000000   1.0000000
B2   B   0.277749702186136   0.555550662957346   0.875000000000000   1.0000000
B2   B   0.111061754448523   0.055512880712181   0.875000000000000   1.0000000
B2   B   0.611121807385619   0.555562518727319   0.875000000000000   1.0000000
B2   B   0.444438482119866   0.055518201556468   0.875000000000000   1.0000000
B2   B   0.944433787655693   0.555540815720015   0.875000000000000   1.0000000
B2   B   0.114900620115276   0.556531096409161   0.375000000000000   1.0000000
B2   B   0.777758570073050   0.055535827721181   0.875000000000000   1.0000000
B2   B   0.276244991908962   0.056442826883154   0.375000000000000   1.0000000
B2   B   0.447485988713534   0.550611224972295   0.375000000000000   1.0000000
B2   B   0.784598679350812   0.560712026106079   0.375000000000000   1.0000000
B2   B   0.609801201003872   0.061718725752136   0.375000000000000   1.0000000
B2   B   0.444437570844757   0.555566586554227   0.875000000000000   1.0000000
B2   B   0.940431567040230   0.054017738087663   0.375000000000000   1.0000000
B2   B   0.277760428110359   0.722210709712640   0.875000000000000   1.0000000
B2   B   0.111051764022928   0.222184137604644   0.875000000000000   1.0000000
B2   B   0.444443241734770   0.222186902018068   0.875000000000000   1.0000000
B2   B   0.611110616864905   0.722233552414842   0.875000000000000   1.0000000
B2   B   0.944431034765949   0.722204057515501   0.875000000000000   1.0000000
B2   B   0.777766562691396   0.222201336384557   0.875000000000000   1.0000000
B2   B   0.114840029296661   0.724232991801599   0.375000000000000   1.0000000
B2   B   0.446044683929775   0.720288764541253   0.375000000000000   1.0000000
B2   B   0.267245550590206   0.217352360444426   0.375000000000000   1.0000000
B2   B   0.777531017816945   0.720704850011507   0.375000000000000   1.0000000
B2   B   0.610874848350063   0.238603659387805   0.375000000000000   1.0000000
B2   B   0.941313284810087   0.221966006003896   0.375000000000000   1.0000000
B2   B   0.111065227898016   0.388868315212107   0.875000000000000   1.0000000
B2   B   0.277760091426661   0.888859379455055   0.875000000000000   1.0000000
B2   B   0.611103726945133   0.888883783086961   0.875000000000000   1.0000000
B2   B   0.444438869514413   0.388877710858240   0.875000000000000   1.0000000
B2   B   0.944417760769607   0.888867470664848   0.875000000000000   1.0000000
B2   B   0.111917065674619   0.889968108803684   0.375000000000000   1.0000000
B2   B   0.777778657974526   0.388877677060791   0.875000000000000   1.0000000
B2   B   0.445589268941531   0.890736940685861   0.375000000000000   1.0000000
B2   B   0.275897502862121   0.384611673219587   0.375000000000000   1.0000000
B2   B   0.280550864421004   0.554398521738936   0.375000000000000   1.0000000
B2   B   0.775488544245637   0.887460855020979   0.375000000000000   1.0000000
B2   B   0.947237181663219   0.390049506388126   0.375000000000000   1.0000000
B2   B   0.111084152366870   0.555540952689090   0.875000000000000   1.0000000
B2   B   0.277747923493089   0.055510350119430   0.875000000000000   1.0000000
B2   B   0.777782581002160   0.555541801730642   0.875000000000000   1.0000000
B2   B   0.611105896766270   0.055530968709548   0.875000000000000   1.0000000
B2   B   0.944404809996968   0.055526083125353   0.875000000000000   1.0000000
B2   B   0.055469990305567   0.111051680790989   0.124852633719721   1.0000000
B2   B   0.555657720146309   0.611177357384658   0.125258402134965   1.0000000
B2   B   0.388866901815935   0.111048597714024   0.125087013430220   1.0000000
B2   B   0.889009082668621   0.611180416743433   0.125013159039378   1.0000000
B2   B   0.722225581192044   0.111149276422541   0.125000511769039   1.0000000
B2   B   0.055595178417401   0.777789773234001   0.625043393741488   1.0000000
B2   B   0.388860867948582   0.777797856487378   0.625007064950730   1.0000000
B2   B   0.222108610418257   0.277725667482746   0.625034142044276   1.0000000
B2   B   0.722276228967168   0.777818403018098   0.624960875177661   1.0000000
B2   B   0.555734996379383   0.277964692786617   0.624936148918148   1.0000000
B2   B   0.888927448358405   0.277841000120063   0.625087893101470   1.0000000
B2   B   0.222214373942022   0.777777739467870   0.124955455198153   1.0000000
B2   B   0.055501077222519   0.277792951493848   0.124866657750026   1.0000000
B2   B   0.388870709033122   0.277732121514547   0.124943339938674   1.0000000
B2   B   0.555551242017988   0.777810892570913   0.125068611530021   1.0000000
B2   B   0.888967801588929   0.777818156906306   0.124966489363268   1.0000000
B2   B   0.722348500685475   0.277909662441127   0.125080723707133   1.0000000
B2   B   0.055523287954328   0.944398107136307   0.625102421958483   1.0000000
B2   B   0.388862147751064   0.944414036407196   0.625006348199284   1.0000000
B2   B   0.222166062104478   0.444494923743046   0.624971249260553   1.0000000
B2   B   0.555776436339315   0.444473931663433   0.625059620336578   1.0000000
B2   B   0.722198761150915   0.944457364059288   0.625031263229822   1.0000000
B2   B   0.888985168256162   0.444528465126769   0.625009618081140   1.0000000
B2   B   0.055570064642180   0.444506561954836   0.124916685788004   1.0000000
B2   B   0.222185598654325   0.944378282197034   0.124962940160819   1.0000000
B2   B   0.555529091280365   0.944458120893032   0.125008950700353   1.0000000
B2   B   0.388900058577908   0.444477026570623   0.125010927143070   1.0000000
B2   B   0.888875748619027   0.944439621962366   0.124890298880355   1.0000000
B2   B   0.722395163562152   0.444549496378738   0.125200960717480   1.0000000
B2   B   0.222203466004986   0.611161715278107   0.625020862643260   1.0000000
B2   B   0.055469990305567   0.111051680790989   0.625147366280269   1.0000000
B2   B   0.555657720146309   0.611177357384658   0.624741597865021   1.0000000
B2   B   0.388866901815935   0.111048597714024   0.624912986569773   1.0000000
B2   B   0.889009082668621   0.611180416743433   0.624986840960616   1.0000000
B2   B   0.055599075381021   0.611160245118969   0.124960488230575   1.0000000
B2   B   0.722225581192044   0.111149276422541   0.624999488230980   1.0000000
B2   B   0.222117988616454   0.110991875959679   0.124966799044834   1.0000000
B2   B   0.388867609583085   0.611177013968172   0.125123405079375   1.0000000
B2   B   0.722411521686401   0.611184703479411   0.125089374486950   1.0000000
B2   B   0.555582461600269   0.111156711007028   0.125178578905868   1.0000000
B2   B   0.388867609583085   0.611177013968172   0.624876594920632   1.0000000
B2   B   0.888856667325712   0.111118041006869   0.124865797463057   1.0000000
B2   B   0.222214373942022   0.777777739467870   0.625044544801830   1.0000000
B2   B   0.055501077222519   0.277792951493848   0.625133342249986   1.0000000
B2   B   0.388870709033122   0.277732121514547   0.625056660061343   1.0000000
B2   B   0.555551242017988   0.777810892570913   0.624931388469965   1.0000000
B2   B   0.888967801588929   0.777818156906306   0.625033510636736   1.0000000
B2   B   0.722348500685475   0.277909662441127   0.624919276292871   1.0000000
B2   B   0.055595178417401   0.777789773234001   0.124956606258494   1.0000000
B2   B   0.388860867948582   0.777797856487378   0.124992935049277   1.0000000
B2   B   0.222108610418257   0.277725667482746   0.124965857955737   1.0000000
B2   B   0.722276228967168   0.777818403018098   0.125039124822345   1.0000000
B2   B   0.555734996379383   0.277964692786617   0.125063851081872   1.0000000
B2   B   0.888927448358405   0.277841000120063   0.124912106898531   1.0000000
B2   B   0.055570064642180   0.444506561954836   0.625083314211983   1.0000000
B2   B   0.222185598654325   0.944378282197034   0.625037059839198   1.0000000
B2   B   0.555529091280365   0.944458120893032   0.624991049299654   1.0000000
B2   B   0.388900058577908   0.444477026570623   0.624989072856934   1.0000000
B2   B   0.888875748619027   0.944439621962366   0.625109701119635   1.0000000
B2   B   0.055523287954328   0.944398107136307   0.124897578041525   1.0000000
B2   B   0.722395163562152   0.444549496378738   0.624799039282504   1.0000000
B2   B   0.388862147751064   0.944414036407196   0.124993651800701   1.0000000
B2   B   0.222166062104478   0.444494923743046   0.125028750739439   1.0000000
B2   B   0.222203466004986   0.611161715278107   0.124979137356728   1.0000000
B2   B   0.555776436339315   0.444473931663433   0.124940379663404   1.0000000
B2   B   0.722198761150915   0.944457364059288   0.124968736770172   1.0000000
B2   B   0.888985168256162   0.444528465126769   0.124990381918850   1.0000000
B2   B   0.055599075381021   0.611160245118969   0.625039511769442   1.0000000
B2   B   0.222117988616454   0.110991875959679   0.625033200955167   1.0000000
B2   B   0.722411521686401   0.611184703479411   0.624910625513048   1.0000000
B2   B   0.555582461600269   0.111156711007028   0.624821421094127   1.0000000
B2   B   0.888856667325712   0.111118041006869   0.625134202536941   1.0000000


