data_1
_audit_creation_method   'vasp2cif'
_cell_length_a    14.93631414619966
_cell_length_b    14.936314146199727
_cell_length_c    13.341276283792837
_cell_angle_alpha    90.0
_cell_angle_beta    90.0
_cell_angle_gamma    119.99999999999984

_symmetry_space_group_name_H-M    'P 1'
loop_
_atom_site_label
_atom_site_type_symbol
_atom_site_fract_x
_atom_site_fract_y
_atom_site_fract_z
_atom_site_occupancy
N2   N   0.444444444444443   0.388888888888886   0.375000000000000   1.0000000
N2   N   0.111110493827762   0.055559545257395   0.125022426620498   1.0000000
N2   N   0.611098688737338   0.555565411410553   0.125061451848716   1.0000000
N2   N   0.444449051429633   0.055559545257395   0.125022426620498   1.0000000
N2   N   0.944440870702283   0.555552813818597   0.125005938129274   1.0000000
N2   N   0.777777777777779   0.055555555555557   0.124992291678769   1.0000000
N2   N   0.111111111111114   0.722222222222221   0.625004100020852   1.0000000
N2   N   0.444449051429633   0.722222839505574   0.624977573379502   1.0000000
N2   N   0.277767921922782   0.222234644595998   0.624938548151284   1.0000000
N2   N   0.777773788075940   0.722222839505574   0.624977573379502   1.0000000
N2   N   0.611124676010916   0.222208657322420   0.625013417521164   1.0000000
N2   N   0.944436069864587   0.222220000872286   0.624994697195645   1.0000000
N2   N   0.277780519514738   0.722221390217021   0.125005938129274   1.0000000
N2   N   0.111083981311512   0.222208657322420   0.124986582478835   1.0000000
N2   N   0.444466722673216   0.222234644595998   0.125061451848716   1.0000000
N2   N   0.611124676010916   0.722249352021824   0.124986582478835   1.0000000
N2   N   0.944440870702283   0.722221390217021   0.125005938129274   1.0000000
N2   N   0.777783931007698   0.222220000872286   0.125005302804356   1.0000000
N2   N   0.111111943116315   0.888892462631045   0.624994061870726   1.0000000
N2   N   0.444444545289135   0.888888939311231   0.624988564494487   1.0000000
N2   N   0.277767921922782   0.388866610660113   0.624938548151284   1.0000000
N2   N   0.611098688737338   0.388866610660113   0.624938548151284   1.0000000
N2   N   0.777783931007698   0.888897263468741   0.624994697195645   1.0000000
N2   N   0.944444394022097   0.388888788044194   0.624988564494487   1.0000000
N2   N   0.111110493827762   0.388884281903695   0.125022426620498   1.0000000
N2   N   0.277780519514738   0.888892462631045   0.125005938129274   1.0000000
N2   N   0.611113332461050   0.888897263468741   0.125005302804356   1.0000000
N2   N   0.444444444444443   0.388888888888886   0.124978672133763   1.0000000
N2   N   0.944444394022097   0.888888939311231   0.125011435505513   1.0000000
N2   N   0.777773788075940   0.388884281903695   0.125022426620498   1.0000000
N2   N   0.277783519884898   0.555549813448438   0.624989018478821   1.0000000
N2   N   0.111110493827762   0.055559545257395   0.624977573379502   1.0000000
N2   N   0.611098688737338   0.555565411410553   0.624938548151284   1.0000000
N2   N   0.444449051429633   0.055559545257395   0.624977573379502   1.0000000
N2   N   0.944440870702283   0.555552813818597   0.624994061870726   1.0000000
N2   N   0.111111943116315   0.555552813818597   0.125005938129274   1.0000000
N2   N   0.777777777777779   0.055555555555557   0.625007708321231   1.0000000
N2   N   0.277783519884898   0.055567039769795   0.125010981521179   1.0000000
N2   N   0.444466722673216   0.555565411410553   0.125061451848716   1.0000000
N2   N   0.777766293563540   0.555549813448438   0.125010981521179   1.0000000
N2   N   0.611113332461050   0.055549402325637   0.125005302804356   1.0000000
N2   N   0.444466722673216   0.555565411410553   0.624938548151284   1.0000000
N2   N   0.944436069864587   0.055549402325637   0.125005302804356   1.0000000
N2   N   0.277780519514738   0.722221390217021   0.624994061870726   1.0000000
N2   N   0.111083981311512   0.222208657322420   0.625013417521164   1.0000000
N2   N   0.444466722673216   0.222234644595998   0.624938548151284   1.0000000
N2   N   0.611124676010916   0.722249352021824   0.625013417521164   1.0000000
N2   N   0.944440870702283   0.722221390217021   0.624994061870726   1.0000000
N2   N   0.777783931007698   0.222220000872286   0.624994697195645   1.0000000
N2   N   0.111111111111114   0.722222222222221   0.124995899979148   1.0000000
N2   N   0.444449051429633   0.722222839505574   0.125022426620498   1.0000000
N2   N   0.277767921922782   0.222234644595998   0.125061451848716   1.0000000
N2   N   0.777773788075940   0.722222839505574   0.125022426620498   1.0000000
N2   N   0.611124676010916   0.222208657322420   0.124986582478835   1.0000000
N2   N   0.944436069864587   0.222220000872286   0.125005302804356   1.0000000
N2   N   0.111110493827762   0.388884281903695   0.624977573379502   1.0000000
N2   N   0.277780519514738   0.888892462631045   0.624994061870726   1.0000000
N2   N   0.611113332461050   0.888897263468741   0.624994697195645   1.0000000
N2   N   0.444444444444443   0.388888888888886   0.625021327866237   1.0000000
N2   N   0.944444394022097   0.888888939311231   0.624988564494487   1.0000000
N2   N   0.111111943116315   0.888892462631045   0.125005938129274   1.0000000
N2   N   0.777773788075940   0.388884281903695   0.624977573379502   1.0000000
N2   N   0.444444545289135   0.888888939311231   0.125011435505513   1.0000000
N2   N   0.277767921922782   0.388866610660113   0.125061451848716   1.0000000
N2   N   0.277783519884898   0.555549813448438   0.125010981521179   1.0000000
N2   N   0.611098688737338   0.388866610660113   0.125061451848716   1.0000000
N2   N   0.777783931007698   0.888897263468741   0.125005302804356   1.0000000
N2   N   0.944444394022097   0.388888788044194   0.125011435505513   1.0000000
N2   N   0.111111943116315   0.555552813818597   0.624994061870726   1.0000000
N2   N   0.277783519884898   0.055567039769795   0.624989018478821   1.0000000
N2   N   0.777766293563540   0.555549813448438   0.624989018478821   1.0000000
N2   N   0.611113332461050   0.055549402325637   0.624994697195645   1.0000000
N2   N   0.944436069864587   0.055549402325637   0.624994697195645   1.0000000
N2   N   0.055827242061034   0.111276204737815   0.375000000000000   1.0000000
N2   N   0.555497488484090   0.610994976968180   0.375000000000000   1.0000000
N2   N   0.388892084984664   0.112451604506092   0.375000000000000   1.0000000
N2   N   0.888554369132092   0.610943851232718   0.375000000000000   1.0000000
N2   N   0.722171484270651   0.111161849062685   0.375000000000000   1.0000000
N2   N   0.055555348883606   0.777777984449730   0.875000000000000   1.0000000
N2   N   0.388889349458904   0.777778958631742   0.875000000000000   1.0000000
N2   N   0.222222508186921   0.277777920760129   0.875000000000000   1.0000000
N2   N   0.722223329530949   0.777778109100518   0.875000000000000   1.0000000
N2   N   0.555555412573207   0.277777920760129   0.875000000000000   1.0000000
N2   N   0.888889787064265   0.277779574128538   0.875000000000000   1.0000000
N2   N   0.222299035161663   0.777816184247499   0.375000000000000   1.0000000
N2   N   0.055827242061034   0.277884370656555   0.375000000000000   1.0000000
N2   N   0.390262758476035   0.280525516952077   0.375000000000000   1.0000000
N2   N   0.555448962676781   0.777506091272302   0.375000000000000   1.0000000
N2   N   0.888465063077459   0.777409272779560   0.375000000000000   1.0000000
N2   N   0.722057128595521   0.277884370656555   0.375000000000000   1.0000000
N2   N   0.055554374701594   0.944443724160497   0.875000000000000   1.0000000
N2   N   0.388889349458904   0.944443724160497   0.875000000000000   1.0000000
N2   N   0.222222346220888   0.444443765482348   0.875000000000000   1.0000000
N2   N   0.555554403999100   0.444443868666214   0.875000000000000   1.0000000
N2   N   0.722221791099194   0.944443582198388   0.875000000000000   1.0000000
N2   N   0.888889609172831   0.444443983874425   0.875000000000000   1.0000000
N2   N   0.055924060553776   0.444389123631235   0.375000000000000   1.0000000
N2   N   0.222389482100618   0.944778964201236   0.375000000000000   1.0000000
N2   N   0.555470767997683   0.944402050665506   0.375000000000000   1.0000000
N2   N   0.390262758476035   0.443070574857293   0.375000000000000   1.0000000
N2   N   0.888931282667822   0.944402050665506   0.375000000000000   1.0000000
N2   N   0.720881728827244   0.444441248348664   0.375000000000000   1.0000000
N2   N   0.222221757777895   0.611111575555441   0.875000000000000   1.0000000
N2   N   0.055555224232818   0.111110003802387   0.875000000000000   1.0000000
N2   N   0.555555412573207   0.611110825146414   0.875000000000000   1.0000000
N2   N   0.388889567850981   0.111111914071875   0.875000000000000   1.0000000
N2   N   0.888889817777539   0.611111575555441   0.875000000000000   1.0000000
N2   N   0.055517149085836   0.611034298171673   0.375000000000000   1.0000000
N2   N   0.722221791099194   0.111111542234142   0.875000000000000   1.0000000
N2   N   0.223559519521421   0.112451604506092   0.375000000000000   1.0000000
N2   N   0.388892084984664   0.609773813811916   0.375000000000000   1.0000000
N2   N   0.720881728827244   0.609773813811916   0.375000000000000   1.0000000
N2   N   0.555448962676781   0.111276204737815   0.375000000000000   1.0000000
N2   N   0.388889567850981   0.611110987112448   0.875000000000000   1.0000000
N2   N   0.888990364792027   0.111161849062685   0.375000000000000   1.0000000
N2   N   0.222222635566124   0.777777984449730   0.875000000000000   1.0000000
N2   N   0.055555224232818   0.277778553763766   0.875000000000000   1.0000000
N2   N   0.388889464667114   0.277778929334236   0.875000000000000   1.0000000
N2   N   0.555554779569570   0.777778109100518   0.875000000000000   1.0000000
N2   N   0.888889609172831   0.777778958631742   0.875000000000000   1.0000000
N2   N   0.722223329530949   0.277778553763766   0.875000000000000   1.0000000
N2   N   0.055517149085836   0.777816184247499   0.375000000000000   1.0000000
N2   N   0.388944209702093   0.777409272779560   0.375000000000000   1.0000000
N2   N   0.222338356365155   0.277835844849246   0.375000000000000   1.0000000
N2   N   0.722057128595521   0.777506091272302   0.375000000000000   1.0000000
N2   N   0.555497488484090   0.277835844849246   0.375000000000000   1.0000000
N2   N   0.888931282667822   0.277862565335652   0.375000000000000   1.0000000
N2   N   0.055554374701594   0.444443983874425   0.875000000000000   1.0000000
N2   N   0.222221757777895   0.944443515555790   0.875000000000000   1.0000000
N2   N   0.555553759204798   0.944443546269063   0.875000000000000   1.0000000
N2   N   0.388889464667114   0.444443868666214   0.875000000000000   1.0000000
N2   N   0.888889787064265   0.944443546269063   0.875000000000000   1.0000000
N2   N   0.055924060553776   0.944868270255869   0.375000000000000   1.0000000
N2   N   0.722221419261460   0.444443765482348   0.875000000000000   1.0000000
N2   N   0.388944209702093   0.944868270255869   0.375000000000000   1.0000000
N2   N   0.223559519521421   0.444441248348664   0.375000000000000   1.0000000
N2   N   0.222389482100618   0.610943851232718   0.375000000000000   1.0000000
N2   N   0.552807816381258   0.443070574857293   0.375000000000000   1.0000000
N2   N   0.722171484270651   0.944342968541302   0.375000000000000   1.0000000
N2   N   0.888465063077459   0.444389123631235   0.375000000000000   1.0000000
N2   N   0.055555348883606   0.611110697767212   0.875000000000000   1.0000000
N2   N   0.222222346220888   0.111111914071875   0.875000000000000   1.0000000
N2   N   0.722221419261460   0.611110987112448   0.875000000000000   1.0000000
N2   N   0.555554779569570   0.111110003802387   0.875000000000000   1.0000000
N2   N   0.888889751134940   0.111111542234142   0.875000000000000   1.0000000
B2   B   0.111922333516095   0.056300779647348   0.375000000000000   1.0000000
B2   B   0.609400389505715   0.554267167552282   0.375000000000000   1.0000000
B2   B   0.444378446131253   0.056300779647348   0.375000000000000   1.0000000
B2   B   0.944277246108415   0.555512786961414   0.375000000000000   1.0000000
B2   B   0.777777777777779   0.055555555555557   0.375000000000000   1.0000000
B2   B   0.111111111111114   0.722222222222221   0.875000000000000   1.0000000
B2   B   0.444443423378145   0.722219687107073   0.875000000000000   1.0000000
B2   B   0.277783431707710   0.222227220600218   0.875000000000000   1.0000000
B2   B   0.777776263728928   0.722219687107073   0.875000000000000   1.0000000
B2   B   0.611108576403192   0.222224756930144   0.875000000000000   1.0000000
B2   B   0.944446667819970   0.222224454585778   0.875000000000000   1.0000000
B2   B   0.277820546371922   0.722097792480336   0.375000000000000   1.0000000
B2   B   0.111374007313431   0.222353670323380   0.375000000000000   1.0000000
B2   B   0.444866778046568   0.223932943827621   0.375000000000000   1.0000000
B2   B   0.610979663009956   0.721959326019905   0.375000000000000   1.0000000
B2   B   0.944277246108415   0.722097792480336   0.375000000000000   1.0000000
B2   B   0.777734861039730   0.222344959102317   0.375000000000000   1.0000000
B2   B   0.111111574520360   0.888889851729469   0.875000000000000   1.0000000
B2   B   0.444443397933887   0.888888365633608   0.875000000000000   1.0000000
B2   B   0.277783431707710   0.388889544440820   0.875000000000000   1.0000000
B2   B   0.611106112733117   0.388889544440820   0.875000000000000   1.0000000
B2   B   0.777777786765808   0.888886665513358   0.875000000000000   1.0000000
B2   B   0.944444967699721   0.388889935399442   0.875000000000000   1.0000000
B2   B   0.111922333516095   0.388954887202076   0.375000000000000   1.0000000
B2   B   0.277820546371922   0.889056087224914   0.375000000000000   1.0000000
B2   B   0.610988374231019   0.888723235270741   0.375000000000000   1.0000000
B2   B   0.944481154052930   0.888852179280399   0.375000000000000   1.0000000
B2   B   0.777032553685988   0.388954887202076   0.375000000000000   1.0000000
B2   B   0.277779178975777   0.555554154357559   0.875000000000000   1.0000000
B2   B   0.111113646226263   0.055557069604408   0.875000000000000   1.0000000
B2   B   0.611106112733117   0.555549901625626   0.875000000000000   1.0000000
B2   B   0.444443423378145   0.055557069604408   0.875000000000000   1.0000000
B2   B   0.944443481603859   0.555555056124220   0.875000000000000   1.0000000
B2   B   0.111235540852999   0.555512786961414   0.375000000000000   1.0000000
B2   B   0.777777777777779   0.055555555555557   0.875000000000000   1.0000000
B2   B   0.278009718715952   0.056019437431904   0.375000000000000   1.0000000
B2   B   0.444866778046568   0.554267167552282   0.375000000000000   1.0000000
B2   B   0.777313895901431   0.555323614617384   0.375000000000000   1.0000000
B2   B   0.610988374231019   0.055598472293606   0.375000000000000   1.0000000
B2   B   0.444443788892509   0.555549901625626   0.875000000000000   1.0000000
B2   B   0.944610098062587   0.055598472293606   0.375000000000000   1.0000000
B2   B   0.277778277209116   0.722221758812975   0.875000000000000   1.0000000
B2   B   0.111116180526959   0.222224756930144   0.875000000000000   1.0000000
B2   B   0.444443788892509   0.222227220600218   0.875000000000000   1.0000000
B2   B   0.611108576403192   0.722217152806377   0.875000000000000   1.0000000
B2   B   0.944443481603859   0.722221758812975   0.875000000000000   1.0000000
B2   B   0.777777786765808   0.222224454585778   0.875000000000000   1.0000000
B2   B   0.111111111111114   0.722222222222221   0.375000000000000   1.0000000
B2   B   0.444378446131253   0.721410999817241   0.375000000000000   1.0000000
B2   B   0.279066165781053   0.223932943827621   0.375000000000000   1.0000000
B2   B   0.777032553685988   0.721410999817241   0.375000000000000   1.0000000
B2   B   0.610979663009956   0.222353670323380   0.375000000000000   1.0000000
B2   B   0.944610098062587   0.222344959102317   0.375000000000000   1.0000000
B2   B   0.111113646226263   0.388889909955184   0.875000000000000   1.0000000
B2   B   0.277778277209116   0.888889851729469   0.875000000000000   1.0000000
B2   B   0.611108878747558   0.888886665513358   0.875000000000000   1.0000000
B2   B   0.444444444444443   0.388888888888886   0.875000000000000   1.0000000
B2   B   0.944444967699721   0.888888365633608   0.875000000000000   1.0000000
B2   B   0.111235540852999   0.889056087224914   0.375000000000000   1.0000000
B2   B   0.777776263728928   0.388889909955184   0.875000000000000   1.0000000
B2   B   0.444371025227470   0.888852179280399   0.375000000000000   1.0000000
B2   B   0.279066165781053   0.388466555286761   0.375000000000000   1.0000000
B2   B   0.278009718715952   0.555323614617384   0.375000000000000   1.0000000
B2   B   0.609400389505715   0.388466555286761   0.375000000000000   1.0000000
B2   B   0.777734861039730   0.888723235270741   0.375000000000000   1.0000000
B2   B   0.944481154052930   0.388962308105859   0.375000000000000   1.0000000
B2   B   0.111111574520360   0.555555056124220   0.875000000000000   1.0000000
B2   B   0.277779178975777   0.055558357951553   0.875000000000000   1.0000000
B2   B   0.777774975381782   0.555554154357559   0.875000000000000   1.0000000
B2   B   0.611108878747558   0.055555546567528   0.875000000000000   1.0000000
B2   B   0.944446667819970   0.055555546567528   0.875000000000000   1.0000000
B2   B   0.055549756303774   0.111112872756441   0.124996089258632   1.0000000
B2   B   0.555556356680910   0.611112713361819   0.125005030016177   1.0000000
B2   B   0.388902368856023   0.111137749426735   0.125015598521458   1.0000000
B2   B   0.888876802264650   0.611105067798996   0.124997931512086   1.0000000
B2   B   0.722223293899358   0.111110039433978   0.124993816796706   1.0000000
B2   B   0.055554884426457   0.777778448906879   0.625003745637793   1.0000000
B2   B   0.388891728858403   0.777775370296444   0.624999377292868   1.0000000
B2   B   0.222220619971516   0.277776976652426   0.624994969983823   1.0000000
B2   B   0.722220460576895   0.777783577029562   0.625003910741368   1.0000000
B2   B   0.555556356680910   0.277776976652426   0.624994969983823   1.0000000
B2   B   0.888888122264297   0.277776244528601   0.625002161441641   1.0000000
B2   B   0.222223564480422   0.777778448906879   0.124996254362207   1.0000000
B2   B   0.055549756303774   0.277770216880668   0.124996089258632   1.0000000
B2   B   0.388917533677703   0.277835067355412   0.125166127660845   1.0000000
B2   B   0.555563116452668   0.777783577029562   0.124996089258632   1.0000000
B2   B   0.888883641438034   0.777775370296444   0.125000622707132   1.0000000
B2   B   0.722220460576895   0.277770216880668   0.124996089258632   1.0000000
B2   B   0.055557963036892   0.944449691895295   0.624999377292868   1.0000000
B2   B   0.388891728858403   0.944449691895295   0.624999377292868   1.0000000
B2   B   0.222235380570704   0.444430964477305   0.624984401478542   1.0000000
B2   B   0.555498265977923   0.444415799655626   0.624833872339155   1.0000000
B2   B   0.722223293899358   0.944446587798716   0.625006183203294   1.0000000
B2   B   0.888883641438034   0.444441604474925   0.624999377292868   1.0000000
B2   B   0.055557963036892   0.444441604474925   0.125000622707132   1.0000000
B2   B   0.222228265534339   0.944456531068679   0.124997931512086   1.0000000
B2   B   0.555557088804735   0.944445211069031   0.124997838558359   1.0000000
B2   B   0.388917533677703   0.444415799655626   0.125166127660845   1.0000000
B2   B   0.888888122264297   0.944445211069031   0.124997838558359   1.0000000
B2   B   0.722195583906601   0.444430964477305   0.125015598521458   1.0000000
B2   B   0.222228265534339   0.611105067798996   0.625002068487914   1.0000000
B2   B   0.055549756303774   0.111112872756441   0.625003910741368   1.0000000
B2   B   0.555556356680910   0.611112713361819   0.624994969983823   1.0000000
B2   B   0.388902368856023   0.111137749426735   0.624984401478542   1.0000000
B2   B   0.888876802264650   0.611105067798996   0.625002068487914   1.0000000
B2   B   0.055554884426457   0.611109768852914   0.124996254362207   1.0000000
B2   B   0.722223293899358   0.111110039433978   0.625006183203294   1.0000000
B2   B   0.222235380570704   0.111137749426735   0.125015598521458   1.0000000
B2   B   0.388902368856023   0.611097952762631   0.125015598521458   1.0000000
B2   B   0.722195583906601   0.611097952762631   0.125015598521458   1.0000000
B2   B   0.555563116452668   0.111112872756441   0.124996089258632   1.0000000
B2   B   0.388902368856023   0.611097952762631   0.624984401478542   1.0000000
B2   B   0.888886745534612   0.111110039433978   0.124993816796706   1.0000000
B2   B   0.222223564480422   0.777778448906879   0.625003745637793   1.0000000
B2   B   0.055549756303774   0.277770216880668   0.625003910741368   1.0000000
B2   B   0.388917533677703   0.277835067355412   0.624833872339155   1.0000000
B2   B   0.555563116452668   0.777783577029562   0.625003910741368   1.0000000
B2   B   0.888883641438034   0.777775370296444   0.624999377292868   1.0000000
B2   B   0.722220460576895   0.277770216880668   0.625003910741368   1.0000000
B2   B   0.055554884426457   0.777778448906879   0.124996254362207   1.0000000
B2   B   0.388891728858403   0.777775370296444   0.125000622707132   1.0000000
B2   B   0.222220619971516   0.277776976652426   0.125005030016177   1.0000000
B2   B   0.722220460576895   0.777783577029562   0.124996089258632   1.0000000
B2   B   0.555556356680910   0.277776976652426   0.125005030016177   1.0000000
B2   B   0.888888122264297   0.277776244528601   0.124997838558359   1.0000000
B2   B   0.055557963036892   0.444441604474925   0.624999377292868   1.0000000
B2   B   0.222228265534339   0.944456531068679   0.625002068487914   1.0000000
B2   B   0.555557088804735   0.944445211069031   0.625002161441641   1.0000000
B2   B   0.388917533677703   0.444415799655626   0.624833872339155   1.0000000
B2   B   0.888888122264297   0.944445211069031   0.625002161441641   1.0000000
B2   B   0.055557963036892   0.944449691895295   0.125000622707132   1.0000000
B2   B   0.722195583906601   0.444430964477305   0.624984401478542   1.0000000
B2   B   0.388891728858403   0.944449691895295   0.125000622707132   1.0000000
B2   B   0.222235380570704   0.444430964477305   0.125015598521458   1.0000000
B2   B   0.222228265534339   0.611105067798996   0.124997931512086   1.0000000
B2   B   0.555498265977923   0.444415799655626   0.125166127660845   1.0000000
B2   B   0.722223293899358   0.944446587798716   0.124993816796706   1.0000000
B2   B   0.888883641438034   0.444441604474925   0.125000622707132   1.0000000
B2   B   0.055554884426457   0.611109768852914   0.625003745637793   1.0000000
B2   B   0.222235380570704   0.111137749426735   0.624984401478542   1.0000000
B2   B   0.722195583906601   0.611097952762631   0.624984401478542   1.0000000
B2   B   0.555563116452668   0.111112872756441   0.625003910741368   1.0000000
B2   B   0.888886745534612   0.111110039433978   0.625006183203294   1.0000000


