data_1
_audit_creation_method   'vasp2cif'
_cell_length_a    17.52789999999977
_cell_length_b    17.52789999999977
_cell_length_c    15.0
_cell_angle_alpha    90.0
_cell_angle_beta    90.0
_cell_angle_gamma    119.99999999999916

_symmetry_space_group_name_H-M    'P 1'
loop_
_atom_site_label
_atom_site_type_symbol
_atom_site_fract_x
_atom_site_fract_y
_atom_site_fract_z
_atom_site_occupancy
B2   B   0.905362014643931   0.953632498162298   0.110990141483051   1.0000000
B2   B   0.904119854325201   0.095882166870781   0.111000637447285   1.0000000
B2   B   0.903682919113298   0.238622803838475   0.111031768296096   1.0000000
B2   B   0.903691647155390   0.381415298118918   0.110958462344729   1.0000000
B2   B   0.904479974320241   0.524265572815384   0.110979509893822   1.0000000
B2   B   0.905819908952697   0.667464989261574   0.111042612187980   1.0000000
B2   B   0.906523089274284   0.811251998360371   0.111016656526321   1.0000000
B2   B   0.047683398062096   0.952318623133916   0.110962681375707   1.0000000
B2   B   0.046369523033712   0.094640006552072   0.110990141483051   1.0000000
B2   B   0.046024283683096   0.237809102776683   0.110988093835431   1.0000000
B2   B   0.046392855097520   0.380884308398126   0.110973533450492   1.0000000
B2   B   0.047365463641927   0.523728943564996   0.110969801271022   1.0000000
B2   B   0.048189988535372   0.666607571111295   0.111012318112389   1.0000000
B2   B   0.048281650458056   0.809594341800949   0.110969914474071   1.0000000
B2   B   0.190407679395068   0.951720370737962   0.110969914474071   1.0000000
B2   B   0.188750022835632   0.093478931921720   0.111016656526321   1.0000000
B2   B   0.187192853833018   0.235603848960571   0.111011012050831   1.0000000
B2   B   0.188455701609728   0.379879010057026   0.111018315147119   1.0000000
B2   B   0.190339242821207   0.523060431906020   0.111061532183652   1.0000000
B2   B   0.191217559306817   0.666079134417160   0.111055596565472   1.0000000
B2   B   0.190965270900438   0.809036750295579   0.110977762541926   1.0000000
B2   B   0.333394450085688   0.951812032660647   0.111012318112389   1.0000000
B2   B   0.332537031935410   0.094182112243307   0.111042612187980   1.0000000
B2   B   0.329389660426823   0.234239881497251   0.111022844583330   1.0000000
B2   B   0.327664124143123   0.376517378227989   0.111057540440066   1.0000000
B2   B   0.333960208866048   0.521258560929807   0.111166416686513   1.0000000
B2   B   0.334728190659324   0.665273830537659   0.111140302562815   1.0000000
B2   B   0.333922886779867   0.808784461889192   0.111055596565472   1.0000000
B2   B   0.476273077632002   0.952636557554077   0.110969801271022   1.0000000
B2   B   0.475736448381628   0.095522046875755   0.110979509893822   1.0000000
B2   B   0.474774990897044   0.238196238182888   0.111035508301327   1.0000000
B2   B   0.468880749505493   0.376559465506524   0.111136553191542   1.0000000
B2   B   0.478743460267213   0.666041812330958   0.111166416686513   1.0000000
B2   B   0.476941589290993   0.809662778374803   0.111061532183652   1.0000000
B2   B   0.619117712797899   0.953609166098469   0.110973533450492   1.0000000
B2   B   0.618586723077086   0.096310374040613   0.110958462344729   1.0000000
B2   B   0.618049399870892   0.239378294513647   0.111033662892537   1.0000000
B2   B   0.617115384002160   0.382886637193822   0.111067884691224   1.0000000
B2   B   0.623442555689473   0.531121271691505   0.111136553191542   1.0000000
B2   B   0.623484642967993   0.672337897053867   0.111057540440066   1.0000000
B2   B   0.620123011138992   0.811546319586283   0.111018315147119   1.0000000
B2   B   0.762192918419321   0.953977737512922   0.110988093835431   1.0000000
B2   B   0.761379217357528   0.096319102082704   0.111031768296096   1.0000000
B2   B   0.760938201686345   0.239063819509659   0.111047539278066   1.0000000
B2   B   0.760623726682356   0.381952621325097   0.111033662892537   1.0000000
B2   B   0.761805783013130   0.525227030299948   0.111035508301327   1.0000000
B2   B   0.765762139698731   0.670612360770175   0.111022844583330   1.0000000
B2   B   0.764398172235440   0.812809167363006   0.111011012050831   1.0000000
N2   N   0.953208942676544   0.906006330364427   0.110969972531553   1.0000000
N2   N   0.951768184691003   0.048233217227003   0.110975173979370   1.0000000
N2   N   0.950984376305737   0.190769331548189   0.111002176420817   1.0000000
N2   N   0.951048312206869   0.333634953153591   0.110963994526654   1.0000000
N2   N   0.951915267714514   0.476511038639050   0.110925978625278   1.0000000
N2   N   0.953060016387040   0.619469377417876   0.111001991718488   1.0000000
N2   N   0.953538202069343   0.762762652603127   0.111003538418963   1.0000000
N2   N   0.095410642220633   0.904590759697373   0.110922385100417   1.0000000
N2   N   0.093995071553559   0.046792459241434   0.110969972531553   1.0000000
N2   N   0.092461996035542   0.189011380113944   0.110979435767672   1.0000000
N2   N   0.092993746547064   0.332667651294379   0.110964116634869   1.0000000
N2   N   0.094497252483178   0.475976357561862   0.110971628078593   1.0000000
N2   N   0.095622062854391   0.618936869976141   0.110997387858351   1.0000000
N2   N   0.095798964989144   0.761811946538248   0.110953898787933   1.0000000
N2   N   0.238189455379766   0.904202436928855   0.110953898787933   1.0000000
N2   N   0.237238749314886   0.046463199848670   0.111003538418963   1.0000000
N2   N   0.234505263204867   0.187380617113824   0.111001536827296   1.0000000
N2   N   0.232672999549193   0.329376260884247   0.110994219519015   1.0000000
N2   N   0.236692445929771   0.474987266098700   0.111070042220836   1.0000000
N2   N   0.238606499916946   0.618520612136114   0.111074883450771   1.0000000
N2   N   0.238530510679901   0.761470891238111   0.111028447851820   1.0000000
N2   N   0.381064531941850   0.904379339063601   0.110997387858351   1.0000000
N2   N   0.380532024500130   0.046941385530972   0.111001991718488   1.0000000
N2   N   0.379269384645195   0.188673202217987   0.111023657945362   1.0000000
N2   N   0.374183741506308   0.327088261073856   0.111025681573756   1.0000000
N2   N   0.373484316505139   0.468447513030797   0.111129765275975   1.0000000
N2   N   0.382119183210422   0.617882218707577   0.111181469078987   1.0000000
N2   N   0.381480789781870   0.761394902001053   0.111074883450771   1.0000000
N2   N   0.524025044355141   0.905504149434835   0.110971628078593   1.0000000
N2   N   0.523490363277933   0.048086134203477   0.110925978625278   1.0000000
N2   N   0.522880268331345   0.190743244074926   0.111000280184309   1.0000000
N2   N   0.521513864254215   0.333383785091609   0.111062354346741   1.0000000
N2   N   0.531553888886220   0.626517085412860   0.111129765275975   1.0000000
N2   N   0.525014135818297   0.763308955988235   0.111070042220836   1.0000000
N2   N   0.667333750622611   0.907007655370929   0.110964116634869   1.0000000
N2   N   0.666366448763385   0.048953089711144   0.110963994526654   1.0000000
N2   N   0.665830370711290   0.191606829462357   0.110992327681578   1.0000000
N2   N   0.665281709169006   0.334719692747990   0.111036281956020   1.0000000
N2   N   0.666617616825396   0.478487537662796   0.111062354346741   1.0000000
N2   N   0.672913140843141   0.625817660411677   0.111025681573756   1.0000000
N2   N   0.670625141032757   0.767328402368812   0.110994219519015   1.0000000
N2   N   0.810990021804069   0.907539405882456   0.110979435767672   1.0000000
N2   N   0.809232070369810   0.049017025612247   0.111002176420817   1.0000000
N2   N   0.808582051030950   0.191419350887055   0.111036235322497   1.0000000
N2   N   0.808394572455641   0.334171031205707   0.110992327681578   1.0000000
N2   N   0.809258157843080   0.477121133585644   0.111000280184309   1.0000000
N2   N   0.811328199700019   0.620732017272810   0.111023657945362   1.0000000
N2   N   0.812620784804160   0.765496138713145   0.111001536827296   1.0000000
P2   P   0.502267472912031   0.497734548284960   0.111286027866660   1.0000000


