data_1
_audit_creation_method   'vasp2cif'
_cell_length_a    17.52789999999977
_cell_length_b    17.52789999999977
_cell_length_c    15.0
_cell_angle_alpha    90.0
_cell_angle_beta    90.0
_cell_angle_gamma    119.99999999999916

_symmetry_space_group_name_H-M    'P 1'
loop_
_atom_site_label
_atom_site_type_symbol
_atom_site_fract_x
_atom_site_fract_y
_atom_site_fract_z
_atom_site_occupancy
Al2   Al   0.520378975506960   0.469303561597360   0.972753279581795   1.0000000
B2   B   0.904946998451676   0.952731246226841   0.120170883265348   1.0000000
B2   B   0.904967952493336   0.095610599881543   0.119599616809918   1.0000000
B2   B   0.904914016271475   0.238384659111090   0.117182159624551   1.0000000
B2   B   0.904720818266567   0.381108455155646   0.114686279916831   1.0000000
B2   B   0.904743544067740   0.523877056355756   0.112443848411048   1.0000000
B2   B   0.904820617390394   0.666752928336514   0.112514200969090   1.0000000
B2   B   0.905105908608416   0.809933918398303   0.117385673884537   1.0000000
B2   B   0.047558660327733   0.952342529895304   0.121933879073397   1.0000000
B2   B   0.047775972601866   0.095466498553831   0.120794226062888   1.0000000
B2   B   0.047877509091575   0.238339178536507   0.116753730372864   1.0000000
B2   B   0.047827207466268   0.381096998285987   0.114691270237455   1.0000000
B2   B   0.047638217760166   0.523846738339018   0.114895127300002   1.0000000
B2   B   0.047580545168417   0.666630429977651   0.116286084900370   1.0000000
B2   B   0.047534154806719   0.809421491025138   0.119399110260057   1.0000000
B2   B   0.190230640544933   0.951994078288664   0.122895379336263   1.0000000
B2   B   0.190057298875606   0.094704660847809   0.122510137536701   1.0000000
B2   B   0.190749671623766   0.238195388377545   0.115450217789884   1.0000000
B2   B   0.190866894210482   0.381010031811304   0.109978055413491   1.0000000
B2   B   0.190567923092341   0.523861922789043   0.112396911963090   1.0000000
B2   B   0.190457320570655   0.666621633108316   0.116160030812869   1.0000000
B2   B   0.190376848889037   0.809338266401345   0.119964403721920   1.0000000
B2   B   0.333189164652270   0.951997614460164   0.122766843064069   1.0000000
B2   B   0.332946633562473   0.094456163290504   0.122336862232018   1.0000000
B2   B   0.332142510490101   0.236342315515699   0.113443877024072   1.0000000
B2   B   0.333581796638780   0.380185706606166   0.095359278161669   1.0000000
B2   B   0.333081493561994   0.523871208214272   0.101246844320555   1.0000000
B2   B   0.333368341971101   0.666746855492687   0.112381382403202   1.0000000
B2   B   0.333297111408373   0.809407374187154   0.119172969985681   1.0000000
B2   B   0.476198237088450   0.952356478352390   0.121620780457032   1.0000000
B2   B   0.476078801361140   0.094717779261229   0.122281092511174   1.0000000
B2   B   0.475658058587750   0.236361394720994   0.113366788321657   1.0000000
B2   B   0.469214843411727   0.366991156802796   0.067496028709554   1.0000000
B2   B   0.472743777246851   0.531621291793527   0.064209807445091   1.0000000
B2   B   0.476359932212432   0.668181474820432   0.104811796542325   1.0000000
B2   B   0.476260612081566   0.809948692340864   0.117220077862271   1.0000000
B2   B   0.619197679581135   0.952742150527912   0.119960566096543   1.0000000
B2   B   0.619112144499563   0.095488833746292   0.120543854749643   1.0000000
B2   B   0.618877921948404   0.238207973748660   0.115243567429177   1.0000000
B2   B   0.618057225393526   0.380203059744481   0.095289415718030   1.0000000
B2   B   0.630294147407694   0.531610653145300   0.064227144936567   1.0000000
B2   B   0.619916216101677   0.668410413088674   0.095787110592409   1.0000000
B2   B   0.619339585298944   0.810172640740725   0.113783287872295   1.0000000
B2   B   0.762141738760273   0.952852822902759   0.118964888770298   1.0000000
B2   B   0.762059379878855   0.095617287826804   0.119508633029513   1.0000000
B2   B   0.761915731374008   0.238362903272616   0.116615496015773   1.0000000
B2   B   0.761600829975475   0.381038190371869   0.109894913295247   1.0000000
B2   B   0.762268260097801   0.523916998445764   0.101232174681323   1.0000000
B2   B   0.763252337520369   0.668189334955778   0.104792030708529   1.0000000
B2   B   0.762247769658430   0.810173431944492   0.113795450088024   1.0000000
N2   N   0.952447541867613   0.904979393012484   0.120536136356324   1.0000000
N2   N   0.952541403441340   0.047950315133664   0.120751980264684   1.0000000
N2   N   0.952614803626267   0.190823525529869   0.118111472775008   1.0000000
N2   N   0.952512592238835   0.333583027293821   0.115753647006998   1.0000000
N2   N   0.952366968349960   0.476295473306729   0.114262889860226   1.0000000
N2   N   0.952347448565340   0.619076621926613   0.113780677101133   1.0000000
N2   N   0.952339297230632   0.761927557718282   0.116884370218414   1.0000000
N2   N   0.095034256768811   0.904557530247468   0.121969082115942   1.0000000
N2   N   0.095001139405428   0.047468871970092   0.122518814143344   1.0000000
N2   N   0.095521868468794   0.190774017869763   0.118352340054036   1.0000000
N2   N   0.095633706156234   0.333551809959602   0.114121172618306   1.0000000
N2   N   0.095361556830179   0.476289016399889   0.114233616331590   1.0000000
N2   N   0.095223503597231   0.619032268028586   0.115884174634846   1.0000000
N2   N   0.095142906126485   0.761787968992627   0.118688927193943   1.0000000
N2   N   0.237937590092086   0.904453600236951   0.122257071491365   1.0000000
N2   N   0.237716900373729   0.047095758427540   0.123609915792764   1.0000000
N2   N   0.237427559665038   0.189742266573088   0.119571996894267   1.0000000
N2   N   0.238892086777477   0.333575239795187   0.107950623102943   1.0000000
N2   N   0.238241848274630   0.476255360257846   0.108617127539713   1.0000000
N2   N   0.238152922788288   0.619071407580057   0.113638768559453   1.0000000
N2   N   0.238054363037589   0.761782794120916   0.118524083831157   1.0000000
N2   N   0.380940062362274   0.904555366950683   0.121700985780822   1.0000000
N2   N   0.380811526038031   0.047098522625897   0.123482038051117   1.0000000
N2   N   0.380361759915948   0.189271749937515   0.117787492331158   1.0000000
N2   N   0.378934510784376   0.329750932069270   0.096496292634309   1.0000000
N2   N   0.380477404432704   0.476362694862602   0.086966946252826   1.0000000
N2   N   0.381032372288807   0.619320909732918   0.105748390920962   1.0000000
N2   N   0.381015263152994   0.761926931479491   0.116666667733309   1.0000000
N2   N   0.523951288474896   0.904994386036067   0.120247862196723   1.0000000
N2   N   0.523890823851630   0.047480758061955   0.122215089344246   1.0000000
N2   N   0.523755842666130   0.189750646153199   0.119374671651527   1.0000000
N2   N   0.522271449003000   0.329769321309528   0.096462603429487   1.0000000
N2   N   0.524424732887834   0.621887035131823   0.091050945444533   1.0000000
N2   N   0.524070671862598   0.762701742992590   0.113514438064076   1.0000000
N2   N   0.666903352747291   0.905200420384786   0.118366751396816   1.0000000
N2   N   0.666827685902945   0.047964552839536   0.120536315356265   1.0000000
N2   N   0.666694208383367   0.190794025972113   0.118121150457212   1.0000000
N2   N   0.666137103147045   0.333593181526475   0.107814182908737   1.0000000
N2   N   0.667350918395894   0.476390502731362   0.086948187539870   1.0000000
N2   N   0.668892361412325   0.621891660893796   0.091026795917277   1.0000000
N2   N   0.667005173993979   0.762589639327566   0.108994621181351   1.0000000
N2   N   0.809712988542820   0.905193343115114   0.118461243131519   1.0000000
N2   N   0.809725675084149   0.048036033338540   0.119803883057260   1.0000000
N2   N   0.809647197301455   0.190833072020151   0.118030152370111   1.0000000
N2   N   0.809370350626280   0.333573203822316   0.114045321942366   1.0000000
N2   N   0.809470242997876   0.476280868713000   0.108591425099370   1.0000000
N2   N   0.809742600577305   0.619349466497853   0.105763900048452   1.0000000
N2   N   0.810054057919388   0.762704601766028   0.113525287606126   1.0000000


