data_1
_audit_creation_method   'vasp2cif'
_cell_length_a    17.52789999999977
_cell_length_b    17.52789999999977
_cell_length_c    15.0
_cell_angle_alpha    90.0
_cell_angle_beta    90.0
_cell_angle_gamma    119.99999999999916

_symmetry_space_group_name_H-M    'P 1'
loop_
_atom_site_label
_atom_site_type_symbol
_atom_site_fract_x
_atom_site_fract_y
_atom_site_fract_z
_atom_site_occupancy
B2   B   0.905698129379505   0.952614631077173   0.112567709492789   1.0000000
B2   B   0.903796953984055   0.093952807255998   0.115567331814946   1.0000000
B2   B   0.903302843750466   0.236590421962901   0.115147675394730   1.0000000
B2   B   0.903704284082775   0.379882867975183   0.112643770005734   1.0000000
B2   B   0.905639743379338   0.523733882447536   0.108616054785755   1.0000000
B2   B   0.907890447490969   0.667764515254405   0.105407952494393   1.0000000
B2   B   0.907979217128751   0.811284206668507   0.107135543641373   1.0000000
B2   B   0.049239575193483   0.953463982090327   0.114126318926818   1.0000000
B2   B   0.048083444000732   0.095728715703975   0.114304021676411   1.0000000
B2   B   0.046265027359209   0.237169824044914   0.113962089544358   1.0000000
B2   B   0.045605498887188   0.379722937582195   0.113864720062962   1.0000000
B2   B   0.046339174289598   0.523231874282142   0.114783809673434   1.0000000
B2   B   0.048371687667603   0.666993417790135   0.114484255612885   1.0000000
B2   B   0.049514526251099   0.810497297175217   0.113627882421584   1.0000000
B2   B   0.191729941132662   0.953133218751840   0.114063206174782   1.0000000
B2   B   0.191110374951397   0.096037054398895   0.110883547480931   1.0000000
B2   B   0.190719666442168   0.239474687947349   0.108611994457810   1.0000000
B2   B   0.187846701396343   0.380096830248685   0.107460168717218   1.0000000
B2   B   0.187037947301053   0.522945456249196   0.110014760125315   1.0000000
B2   B   0.189280138012371   0.666401821104076   0.114630516250103   1.0000000
B2   B   0.191339169057247   0.809860118189166   0.115895370150915   1.0000000
B2   B   0.333995892402291   0.952208667105732   0.111625613270269   1.0000000
B2   B   0.333909467252873   0.095638519028428   0.108380624280618   1.0000000
B2   B   0.332711870668491   0.238543358146972   0.105664217945325   1.0000000
B2   B   0.334132113539439   0.385851051095408   0.105678336355383   1.0000000
B2   B   0.326638571792244   0.522785202399374   0.103473305603785   1.0000000
B2   B   0.330032253059890   0.665698823302237   0.108803658970626   1.0000000
B2   B   0.333396429514774   0.808809135384890   0.112756995505924   1.0000000
B2   B   0.476134968799728   0.949800193426323   0.109482530141027   1.0000000
B2   B   0.476314161825495   0.094180106148533   0.106598317495788   1.0000000
B2   B   0.476216011220382   0.237801404374295   0.106551706639792   1.0000000
B2   B   0.471916321366207   0.375954324892660   0.121210486355650   1.0000000
B2   B   0.473208950509286   0.557179330462535   0.114096340540375   1.0000000
B2   B   0.469367494210096   0.654529006188455   0.111888401014745   1.0000000
B2   B   0.475419598347023   0.804080768575522   0.111012571777594   1.0000000
B2   B   0.618009326730486   0.949206314274262   0.110856269992015   1.0000000
B2   B   0.618428469144274   0.093309558810907   0.108569837134859   1.0000000
B2   B   0.618810764968397   0.237225294257140   0.106200628751417   1.0000000
B2   B   0.619929923121722   0.381291203082314   0.109440640354432   1.0000000
B2   B   0.632438669116052   0.531302363638068   0.119800162075598   1.0000000
B2   B   0.626122735919572   0.667466581880668   0.118451262593874   1.0000000
B2   B   0.617162093440845   0.804849710830640   0.111742753421300   1.0000000
B2   B   0.760824251721753   0.950188169190661   0.112347863775673   1.0000000
B2   B   0.760671683449653   0.093191737498941   0.113245819595060   1.0000000
B2   B   0.760963645647506   0.236643764781616   0.110576139459069   1.0000000
B2   B   0.761996738539004   0.380370508527042   0.106401886915492   1.0000000
B2   B   0.765487319018515   0.524727617940713   0.101995479180564   1.0000000
B2   B   0.768746347701229   0.669876190333661   0.098984233739200   1.0000000
B2   B   0.763895403562000   0.809747495185112   0.106245812376128   1.0000000
N2   N   0.954325311795616   0.905933358503440   0.112114518915235   1.0000000
N2   N   0.952726597407920   0.047625187815769   0.115300459511594   1.0000000
N2   N   0.951038430575735   0.189133582638149   0.116073739072132   1.0000000
N2   N   0.950554796708496   0.331817194240008   0.114926043779493   1.0000000
N2   N   0.951479308068469   0.475211672639081   0.112906750115169   1.0000000
N2   N   0.953631351713725   0.619080791441711   0.109850528547773   1.0000000
N2   N   0.954755020678673   0.762923315233110   0.108577630665920   1.0000000
N2   N   0.096717511886201   0.905717499399333   0.115009636441935   1.0000000
N2   N   0.096186560328432   0.048516355222686   0.114033595604267   1.0000000
N2   N   0.095314261187699   0.190921713184708   0.112810380225976   1.0000000
N2   N   0.092949930024581   0.331962681104519   0.112169594802543   1.0000000
N2   N   0.092450095235612   0.474856278797810   0.113926116959528   1.0000000
N2   N   0.094369534719890   0.618563582546707   0.116067544795604   1.0000000
N2   N   0.096240620386682   0.762323746993567   0.115919767541612   1.0000000
N2   N   0.238967555244629   0.905205995497331   0.114686696322094   1.0000000
N2   N   0.238953597336941   0.048472376296023   0.111265064650698   1.0000000
N2   N   0.238103029756294   0.191250466220474   0.107174478218306   1.0000000
N2   N   0.238027218711916   0.334868762572534   0.105878284017254   1.0000000
N2   N   0.232693378322198   0.474395669444188   0.105060740901305   1.0000000
N2   N   0.235031495597658   0.618070975420998   0.110983953550683   1.0000000
N2   N   0.238069655449786   0.761752329071648   0.115247569252291   1.0000000
N2   N   0.381098096249477   0.904050452171527   0.111363253227598   1.0000000
N2   N   0.381330339648503   0.047651844446142   0.108502753440642   1.0000000
N2   N   0.381202799724595   0.191314308419987   0.106015305882214   1.0000000
N2   N   0.379919845939731   0.334350543860321   0.107707561668222   1.0000000
N2   N   0.379045842952938   0.481012651888415   0.103973872337401   1.0000000
N2   N   0.374563146362725   0.617124020715137   0.105385971754094   1.0000000
N2   N   0.380047341619381   0.760561007466462   0.111116784650416   1.0000000
N2   N   0.522962659515604   0.900776086689303   0.110156655783065   1.0000000
N2   N   0.523408925216248   0.045758777801647   0.107476850845051   1.0000000
N2   N   0.523679236201008   0.190021126079625   0.105078268407033   1.0000000
N2   N   0.523967807971266   0.334045187179696   0.111856363513346   1.0000000
N2   N   0.521690585488275   0.753537355016507   0.112219726631672   1.0000000
N2   N   0.665280644706812   0.901185391370159   0.111586219182832   1.0000000
N2   N   0.665539842175675   0.045146387388743   0.110844118694884   1.0000000
N2   N   0.665827237118260   0.189081204447695   0.107913944712761   1.0000000
N2   N   0.666429013894277   0.333014272717831   0.106111730781029   1.0000000
N2   N   0.670121585744909   0.477008386308959   0.108028019296107   1.0000000
N2   N   0.674807484773491   0.622553943637784   0.104578052872527   1.0000000
N2   N   0.668471060000223   0.760725494386783   0.109729922541327   1.0000000
N2   N   0.810435428058133   0.904506283074059   0.110286159531001   1.0000000
N2   N   0.808407107563493   0.045709785898539   0.114594609275466   1.0000000
N2   N   0.808118335429548   0.188713456726768   0.113715005013761   1.0000000
N2   N   0.808531267384910   0.332113105712969   0.109834314091929   1.0000000
N2   N   0.810708440000429   0.475761194165984   0.103885591552186   1.0000000
N2   N   0.813427589617259   0.619950090150408   0.099199983717236   1.0000000
N2   N   0.813511738953269   0.764015486570988   0.101613777844540   1.0000000
S2   S   0.523778735949182   0.489707228647646   0.166305648370284   1.0000000


