data_1
_audit_creation_method   'vasp2cif'
_cell_length_a    17.52789999999977
_cell_length_b    17.52789999999977
_cell_length_c    15.0
_cell_angle_alpha    90.0
_cell_angle_beta    90.0
_cell_angle_gamma    119.99999999999916

_symmetry_space_group_name_H-M    'P 1'
loop_
_atom_site_label
_atom_site_type_symbol
_atom_site_fract_x
_atom_site_fract_y
_atom_site_fract_z
_atom_site_occupancy
B2   B   0.905477824466889   0.952859800509120   0.111000835438885   1.0000000
B2   B   0.904766878682997   0.095235142512999   0.111005348528123   1.0000000
B2   B   0.904526302153389   0.237977497922197   0.111031091579269   1.0000000
B2   B   0.904766878682997   0.380960429860996   0.111005348528123   1.0000000
B2   B   0.905477824466889   0.524048429205773   0.111000835438885   1.0000000
B2   B   0.905648976569892   0.667092974800541   0.111040751603136   1.0000000
B2   B   0.905648976569892   0.809986407017352   0.111040751603136   1.0000000
B2   B   0.047771078587673   0.952230942608332   0.111006276812350   1.0000000
B2   B   0.047142220686885   0.094524196729107   0.111000835438885   1.0000000
B2   B   0.046720287625722   0.237399846262170   0.111004189480695   1.0000000
B2   B   0.046720287625722   0.380750846610552   0.111004189480695   1.0000000
B2   B   0.047142220686885   0.524048429205773   0.111000835438885   1.0000000
B2   B   0.047771078587673   0.666972252783339   0.111006276812350   1.0000000
B2   B   0.047924978539072   0.809678547671537   0.110987765714167   1.0000000
B2   B   0.190323473524465   0.952077042656934   0.110987765714167   1.0000000
B2   B   0.190015614178652   0.094353044626105   0.111040751603136   1.0000000
B2   B   0.188491351825399   0.235856828466562   0.111007158508557   1.0000000
B2   B   0.188180583829075   0.379805494538038   0.110998298855051   1.0000000
B2   B   0.188491351825399   0.524064928606838   0.111007158508557   1.0000000
B2   B   0.190015614178651   0.667092974800541   0.111040751603136   1.0000000
B2   B   0.190323473524465   0.809678547671537   0.110987765714167   1.0000000
B2   B   0.333029768413659   0.952230942608332   0.111006276812350   1.0000000
B2   B   0.332909046396457   0.094353044626105   0.111040751603136   1.0000000
B2   B   0.332410387677537   0.236249159405077   0.111008219601200   1.0000000
B2   B   0.328416463114660   0.375409474904809   0.111089662820559   1.0000000
B2   B   0.328416463114660   0.524437393456850   0.111089662820559   1.0000000
B2   B   0.332410387677537   0.667591633519460   0.111008219601200   1.0000000
B2   B   0.332909046396457   0.809986407017353   0.111040751603136   1.0000000
B2   B   0.475953591991226   0.952859800509120   0.111000835438885   1.0000000
B2   B   0.475953591991226   0.094524196729107   0.111000835438885   1.0000000
B2   B   0.475937092590161   0.235856828466562   0.111007158508557   1.0000000
B2   B   0.475564627740148   0.375409474904809   0.111089662820559   1.0000000
B2   B   0.475564627740148   0.671585558082338   0.111089662820559   1.0000000
B2   B   0.475937092590161   0.811510669370606   0.111007158508557   1.0000000
B2   B   0.619251174585451   0.953281733570282   0.111004189480695   1.0000000
B2   B   0.619041591335008   0.095235142512999   0.111005348528123   1.0000000
B2   B   0.619251174585451   0.237399846262170   0.111004189480695   1.0000000
B2   B   0.620196526657965   0.379805494538038   0.110998298855051   1.0000000
B2   B   0.624592546291195   0.524437393456850   0.111089662820559   1.0000000
B2   B   0.624592546291195   0.671585558082338   0.111089662820559   1.0000000
B2   B   0.620196526657965   0.811821437366928   0.110998298855051   1.0000000
B2   B   0.762602174933834   0.953281733570282   0.111004189480695   1.0000000
B2   B   0.762024523273806   0.095475719042607   0.111031091579269   1.0000000
B2   B   0.762024523273806   0.237977497922197   0.111031091579269   1.0000000
B2   B   0.762602174933834   0.380750846610552   0.111004189480695   1.0000000
B2   B   0.764145192729441   0.524064928606838   0.111007158508557   1.0000000
B2   B   0.763752861790927   0.667591633519460   0.111008219601200   1.0000000
B2   B   0.764145192729441   0.811510669370606   0.111007158508557   1.0000000
N2   N   0.952652766679548   0.904904514377550   0.110999375175720   1.0000000
N2   N   0.952373844713452   0.047627557204554   0.110975067566556   1.0000000
N2   N   0.952042678996757   0.190291521109750   0.111000745668932   1.0000000
N2   N   0.952042678996757   0.333178140005006   0.111000745668932   1.0000000
N2   N   0.952373844713452   0.476173269626897   0.110975067566556   1.0000000
N2   N   0.952652766679548   0.619176945976996   0.110999375175720   1.0000000
N2   N   0.952720777799467   0.762074735737235   0.111008677035977   1.0000000
N2   N   0.095288795723437   0.904712606194561   0.110971206533637   1.0000000
N2   N   0.095096887540450   0.047348635238457   0.110999375175720   1.0000000
N2   N   0.094241624930015   0.189601131275606   0.110990682367531   1.0000000
N2   N   0.094091497358213   0.332760095516107   0.110990230904210   1.0000000
N2   N   0.094241624930015   0.476069187328411   0.110990682367531   1.0000000
N2   N   0.095096887540450   0.619176945976996   0.110999375175720   1.0000000
N2   N   0.095288795723437   0.762006594759880   0.110971206533637   1.0000000
N2   N   0.237994807158124   0.904712606194561   0.110971206533637   1.0000000
N2   N   0.237926666180771   0.047280624118538   0.111008677035977   1.0000000
N2   N   0.237598301419285   0.189796094909886   0.111017360052502   1.0000000
N2   N   0.235286579342260   0.331184026787096   0.110971900712365   1.0000000
N2   N   0.235286579342260   0.475531246229159   0.110971900712365   1.0000000
N2   N   0.237598301419285   0.619230900184394   0.111017360052502   1.0000000
N2   N   0.237926666180771   0.762074735737235   0.111008677035977   1.0000000
N2   N   0.380824455941003   0.904904514377550   0.110999375175720   1.0000000
N2   N   0.380824455941003   0.047348635238457   0.110999375175720   1.0000000
N2   N   0.380770501733604   0.189796094909886   0.111017360052502   1.0000000
N2   N   0.380514137588286   0.332455566933570   0.110974862881331   1.0000000
N2   N   0.369627563388290   0.470528128531142   0.111344565369276   1.0000000
N2   N   0.380514137588286   0.619487264329714   0.110974862881331   1.0000000
N2   N   0.380770501733604   0.762403100498721   0.111017360052502   1.0000000
N2   N   0.523932214588587   0.905759776987984   0.110990682367531   1.0000000
N2   N   0.523828132290101   0.047627557204554   0.110975067566556   1.0000000
N2   N   0.523932214588587   0.189601131275606   0.110990682367531   1.0000000
N2   N   0.524470155687839   0.331184026787096   0.110971900712365   1.0000000
N2   N   0.529473273385854   0.470528128531142   0.111344565369276   1.0000000
N2   N   0.529473273385854   0.630373838529709   0.111344565369276   1.0000000
N2   N   0.524470155687839   0.764714822575745   0.110971900712365   1.0000000
N2   N   0.667241306400890   0.905909904559785   0.110990230904210   1.0000000
N2   N   0.666823261911990   0.047958722921247   0.111000745668932   1.0000000
N2   N   0.666823261911990   0.190291521109750   0.111000745668932   1.0000000
N2   N   0.667241306400890   0.332760095516107   0.110990230904210   1.0000000
N2   N   0.668817375129901   0.475531246229159   0.110971900712365   1.0000000
N2   N   0.667545834983428   0.619487264329714   0.110974862881331   1.0000000
N2   N   0.668817375129901   0.764714822575745   0.110971900712365   1.0000000
N2   N   0.810400270642393   0.905759776987984   0.110990682367531   1.0000000
N2   N   0.809709880808249   0.047958722921247   0.111000745668932   1.0000000
N2   N   0.809525273905997   0.190476128012001   0.111016307025118   1.0000000
N2   N   0.809709880808249   0.333178140005006   0.111000745668932   1.0000000
N2   N   0.810400270642393   0.476069187328411   0.110990682367531   1.0000000
N2   N   0.810205307008112   0.619230900184394   0.111017360052502   1.0000000
N2   N   0.810205307008112   0.762403100498721   0.111017360052502   1.0000000
S2   S   0.476191212381998   0.523810808815000   0.111302887858131   1.0000000


