data_1
_audit_creation_method   'vasp2cif'
_cell_length_a    17.52789999999977
_cell_length_b    17.52789999999977
_cell_length_c    15.0
_cell_angle_alpha    90.0
_cell_angle_beta    90.0
_cell_angle_gamma    119.99999999999916

_symmetry_space_group_name_H-M    'P 1'
loop_
_atom_site_label
_atom_site_type_symbol
_atom_site_fract_x
_atom_site_fract_y
_atom_site_fract_z
_atom_site_occupancy
B2   B   0.907961570786559   0.953501721173648   0.110728496902991   1.0000000
B2   B   0.909207126569145   0.096303770681382   0.110781643161210   1.0000000
B2   B   0.909581871204141   0.238347943970886   0.110721453302297   1.0000000
B2   B   0.909535230843989   0.380464612564296   0.110655490110780   1.0000000
B2   B   0.908200987178169   0.522698793494225   0.110720733397393   1.0000000
B2   B   0.905764356061717   0.664773421288773   0.110773255426408   1.0000000
B2   B   0.901915945738588   0.805981034701648   0.110714961435318   1.0000000
B2   B   0.049137858253940   0.952984546121119   0.110683875620711   1.0000000
B2   B   0.052581771733698   0.097557774749088   0.110822835275305   1.0000000
B2   B   0.052980471333193   0.239659931741400   0.110899856571199   1.0000000
B2   B   0.052088107674377   0.381791492791857   0.110795539321214   1.0000000
B2   B   0.050261775723112   0.524496973464667   0.110700544671041   1.0000000
B2   B   0.048788260582091   0.667216431288590   0.110757625299823   1.0000000
B2   B   0.047645069388241   0.809766462567479   0.110700050629563   1.0000000
B2   B   0.192103069415365   0.954259253320665   0.110667573915641   1.0000000
B2   B   0.195828286153518   0.099393110054372   0.110738430290064   1.0000000
B2   B   0.197700441141589   0.242449920399746   0.110883653330089   1.0000000
B2   B   0.195609293478844   0.383292724375839   0.110878765115959   1.0000000
B2   B   0.191911808899337   0.525716820353232   0.110797644815004   1.0000000
B2   B   0.190750511306991   0.668603366320289   0.110781256040016   1.0000000
B2   B   0.190947343377712   0.811218403354435   0.110743517629115   1.0000000
B2   B   0.334637060365823   0.954354219481418   0.110727317803688   1.0000000
B2   B   0.336565618950252   0.097792172431544   0.110746637175615   1.0000000
B2   B   0.343841035850856   0.246588106932570   0.110831100663026   1.0000000
B2   B   0.342918190296780   0.387622132151932   0.110764957729604   1.0000000
B2   B   0.333123398484099   0.528126542688354   0.110715589486199   1.0000000
B2   B   0.331843506182463   0.670205125696876   0.110769644115968   1.0000000
B2   B   0.333604659176860   0.812154907624019   0.110834686625358   1.0000000
B2   B   0.477475065692313   0.953776559190396   0.110735050791670   1.0000000
B2   B   0.478662751169908   0.095134348175861   0.110720314584768   1.0000000
B2   B   0.480559039450314   0.237056523639173   0.110793248850607   1.0000000
B2   B   0.497828411744071   0.391398722262559   0.110907682496921   1.0000000
B2   B   0.471395885315038   0.670559703857562   0.110723396553084   1.0000000
B2   B   0.476243197555409   0.812401995664588   0.110837951555757   1.0000000
B2   B   0.620986030306272   0.955319334610764   0.110736893897546   1.0000000
B2   B   0.621912028534415   0.095017902355922   0.110656849398747   1.0000000
B2   B   0.622934215844629   0.234693313335492   0.110683697551231   1.0000000
B2   B   0.625150552839478   0.373302579645857   0.110818730721896   1.0000000
B2   B   0.608992417076212   0.495902361812562   0.110952103135018   1.0000000
B2   B   0.619239017203971   0.816189195261595   0.110705603022182   1.0000000
B2   B   0.764934786635864   0.954239025520483   0.110702226247487   1.0000000
B2   B   0.765726184791969   0.095774015101960   0.110678508863197   1.0000000
B2   B   0.766389775602382   0.236967958682831   0.110630454553682   1.0000000
B2   B   0.767252097289912   0.378182005847554   0.110677153156171   1.0000000
B2   B   0.765001482108214   0.518453753270864   0.110796701436881   1.0000000
B2   B   0.757964344970065   0.655096219470973   0.110840716925073   1.0000000
B2   B   0.763725217922879   0.811556227373586   0.110656948970270   1.0000000
S2   S   0.619080396503422   0.661473184487153   0.110626757214646   1.0000000
N2   N   0.952596002310250   0.903096946762389   0.110686667025728   1.0000000
N2   N   0.956908862813398   0.048968643890310   0.110771402118307   1.0000000
N2   N   0.957548096852494   0.191404663235694   0.110800472263324   1.0000000
N2   N   0.957218146606741   0.333395656633819   0.110696803806069   1.0000000
N2   N   0.955878284395449   0.475685634794395   0.110662103754683   1.0000000
N2   N   0.954030421895282   0.618193739427312   0.110741937638712   1.0000000
N2   N   0.951623540286673   0.760351415974665   0.110717718102651   1.0000000
N2   N   0.096399972157578   0.905426100630429   0.110647195001063   1.0000000
N2   N   0.099364048020493   0.049542233855196   0.110720794913792   1.0000000
N2   N   0.101583298712891   0.193217516609028   0.110884468648706   1.0000000
N2   N   0.100347811521737   0.334810967051016   0.110876446155350   1.0000000
N2   N   0.097674505254643   0.477027466139645   0.110728731262936   1.0000000
N2   N   0.096258116451766   0.619865983577179   0.110722795854578   1.0000000
N2   N   0.095626437556942   0.762645484491052   0.110725149744945   1.0000000
N2   N   0.239256723029762   0.906508793624747   0.110686727708635   1.0000000
N2   N   0.241264172761513   0.049982706953323   0.110679481075840   1.0000000
N2   N   0.246475698958084   0.196253633838802   0.110797186952631   1.0000000
N2   N   0.246162883522842   0.338132319554929   0.110859639718485   1.0000000
N2   N   0.239437607855650   0.478303545171764   0.110833960605834   1.0000000
N2   N   0.237698429414958   0.621035374764895   0.110762333759574   1.0000000
N2   N   0.238450896748637   0.763849130424590   0.110791301896471   1.0000000
N2   N   0.382099300076699   0.906935758623342   0.110753297152318   1.0000000
N2   N   0.383307474023935   0.049317038111561   0.110715268892146   1.0000000
N2   N   0.385912182208417   0.193364366286236   0.110788154789455   1.0000000
N2   N   0.397085726961972   0.345435225112860   0.110829681120037   1.0000000
N2   N   0.382260959231972   0.482987764459707   0.110516021095780   1.0000000
N2   N   0.378044489274719   0.622741635810203   0.110664496919749   1.0000000
N2   N   0.381014580283786   0.765003546277404   0.110830017877252   1.0000000
N2   N   0.525341382931511   0.907033599999753   0.110763569416815   1.0000000
N2   N   0.526408952949993   0.048158314429093   0.110674066871843   1.0000000
N2   N   0.527666846688938   0.189246568012972   0.110719672259198   1.0000000
N2   N   0.530539816709680   0.330674110832797   0.110834106033705   1.0000000
N2   N   0.472074981080281   0.527601628896439   0.109887539638779   1.0000000
N2   N   0.508709900049807   0.615293655646518   0.110522778131867   1.0000000
N2   N   0.523679420436426   0.765189216662550   0.110803086771051   1.0000000
N2   N   0.669314589450899   0.909803784886768   0.110719374294946   1.0000000
N2   N   0.670208639833186   0.049165596372991   0.110664013223179   1.0000000
N2   N   0.671051515916356   0.188928365276923   0.110619583432156   1.0000000
N2   N   0.672696167219039   0.328233424143804   0.110697351973245   1.0000000
N2   N   0.671353648342536   0.466041632179591   0.110855242196399   1.0000000
N2   N   0.661311745779603   0.590664019839185   0.110914943275767   1.0000000
N2   N   0.670948199931503   0.776344126262742   0.110474556759623   1.0000000
N2   N   0.812939725463367   0.906629141487399   0.110697220980347   1.0000000
N2   N   0.813771317718274   0.048937823629932   0.110702926078923   1.0000000
N2   N   0.814338166279689   0.190411047530517   0.110646270195587   1.0000000
N2   N   0.814860029152734   0.331706603338774   0.110608798512844   1.0000000
N2   N   0.813948102689252   0.473111613153729   0.110707834153382   1.0000000
N2   N   0.810639696555298   0.614043169784401   0.110803810103843   1.0000000
N2   N   0.803831942835155   0.754884619304497   0.110723004262009   1.0000000


