data_1
_audit_creation_method   'vasp2cif'
_cell_length_a    17.52789999999977
_cell_length_b    17.52789999999977
_cell_length_c    15.0
_cell_angle_alpha    90.0
_cell_angle_beta    90.0
_cell_angle_gamma    119.99999999999916

_symmetry_space_group_name_H-M    'P 1'
loop_
_atom_site_label
_atom_site_type_symbol
_atom_site_fract_x
_atom_site_fract_y
_atom_site_fract_z
_atom_site_occupancy
B2   B   0.905487912459395   0.952534729463328   0.102277212188389   1.0000000
B2   B   0.903841499619732   0.093974606274287   0.106397951093808   1.0000000
B2   B   0.903350561760151   0.236557101664441   0.106713097288105   1.0000000
B2   B   0.903503114774321   0.379739903035022   0.105967091193334   1.0000000
B2   B   0.904920713580205   0.523366010132674   0.104144410951917   1.0000000
B2   B   0.906778910204550   0.667120457567495   0.099591308200922   1.0000000
B2   B   0.907077016972309   0.810748624872435   0.097782817124524   1.0000000
B2   B   0.049048296250532   0.953373439224045   0.103271694513552   1.0000000
B2   B   0.048162485980497   0.095754700913604   0.104500441441710   1.0000000
B2   B   0.046459217129799   0.237173263821590   0.104120794947538   1.0000000
B2   B   0.045708588138814   0.379636053391367   0.102612335374177   1.0000000
B2   B   0.046212834542635   0.523044799695669   0.103005574375156   1.0000000
B2   B   0.048066820077345   0.666724726495177   0.103431619271958   1.0000000
B2   B   0.049118983684374   0.810251669743835   0.102578513191213   1.0000000
B2   B   0.191742571240422   0.953233553605646   0.106645809608671   1.0000000
B2   B   0.191464143406123   0.096398753167538   0.106622306563349   1.0000000
B2   B   0.191182953167429   0.239652618556326   0.106134492938385   1.0000000
B2   B   0.188405786050670   0.380114612057374   0.102967700754418   1.0000000
B2   B   0.187347746588414   0.522865228778409   0.101743440018094   1.0000000
B2   B   0.189473524422434   0.666212039305183   0.104928644007334   1.0000000
B2   B   0.191301424365432   0.809720667760489   0.106569868359008   1.0000000
B2   B   0.334130794738062   0.952278935394970   0.111683519990170   1.0000000
B2   B   0.334299601172758   0.096213338318545   0.112831883255945   1.0000000
B2   B   0.333616400770607   0.239664356308384   0.114656051031453   1.0000000
B2   B   0.334798650614599   0.385633825895832   0.114899591556049   1.0000000
B2   B   0.327237007180607   0.522645294732219   0.106272786113733   1.0000000
B2   B   0.330831975768799   0.665303156790143   0.107690401786367   1.0000000
B2   B   0.333647692432984   0.808549909073054   0.111537688909707   1.0000000
B2   B   0.476307942575250   0.949735315597408   0.115856487423050   1.0000000
B2   B   0.476541229129804   0.094563154567026   0.116401647981144   1.0000000
B2   B   0.476720620190867   0.238947164642630   0.122177516978888   1.0000000
B2   B   0.472810069971009   0.379051205029997   0.142952171456887   1.0000000
B2   B   0.471582729358361   0.554268181223990   0.137008702539951   1.0000000
B2   B   0.470068731086658   0.652694362950623   0.123753558581739   1.0000000
B2   B   0.475860316728210   0.803564525472630   0.117229471929342   1.0000000
B2   B   0.618169228689000   0.949247989842094   0.114909769028748   1.0000000
B2   B   0.618548863690179   0.093494516851768   0.115668808583689   1.0000000
B2   B   0.618852743739628   0.237630048565550   0.117971681469781   1.0000000
B2   B   0.619495684144308   0.381955394826595   0.124995331188819   1.0000000
B2   B   0.630804662898215   0.531488156720948   0.136573558106398   1.0000000
B2   B   0.628394973923142   0.669179892645584   0.131249770933509   1.0000000
B2   B   0.617355804037972   0.804754104290035   0.115603825088091   1.0000000
B2   B   0.760765381895133   0.950166378612007   0.107901456404016   1.0000000
B2   B   0.760772811884936   0.093249516119392   0.111379125639496   1.0000000
B2   B   0.760938371814831   0.236703679334046   0.111731329598834   1.0000000
B2   B   0.761430097778587   0.380301172687908   0.111667744775772   1.0000000
B2   B   0.763878591898251   0.524104819514351   0.107367807988378   1.0000000
B2   B   0.766736943957397   0.668659704785383   0.098561009711063   1.0000000
B2   B   0.763284759341975   0.809479994456929   0.101022048419602   1.0000000
N2   N   0.954167973688443   0.905859776540706   0.100925573136896   1.0000000
N2   N   0.952770512212058   0.047686570521427   0.104604736321455   1.0000000
N2   N   0.951115897128967   0.189153783658449   0.105740154764354   1.0000000
N2   N   0.950567702829642   0.331742543987326   0.104709517705394   1.0000000
N2   N   0.951344667511555   0.475050265119868   0.104268061905048   1.0000000
N2   N   0.953312180499218   0.618832429299971   0.102542623104832   1.0000000
N2   N   0.954382163415216   0.762664830675020   0.099291400411362   1.0000000
N2   N   0.096638542187552   0.905615089656258   0.104049697021429   1.0000000
N2   N   0.096221644431248   0.048472730787957   0.104577821946482   1.0000000
N2   N   0.095348074226610   0.190841325206519   0.104476555367009   1.0000000
N2   N   0.093018245944848   0.331890336750643   0.102464821555338   1.0000000
N2   N   0.092402764565032   0.474772398255106   0.101761891859083   1.0000000
N2   N   0.094364269061238   0.618462692755577   0.103547786699958   1.0000000
N2   N   0.096145283953820   0.762195449814021   0.104140047537525   1.0000000
N2   N   0.238947304868891   0.905123527279910   0.108061320432032   1.0000000
N2   N   0.239077385320665   0.048500640598660   0.108139379413960   1.0000000
N2   N   0.238438564195497   0.191379617483673   0.107733855210278   1.0000000
N2   N   0.238149125050990   0.334686540610447   0.106565090704222   1.0000000
N2   N   0.232881953110085   0.474353767264617   0.101092417421279   1.0000000
N2   N   0.235322402316305   0.618034170124883   0.103898908817858   1.0000000
N2   N   0.238109037213132   0.761658599128661   0.107557833950305   1.0000000
N2   N   0.381121455405866   0.903961572892016   0.113616584083789   1.0000000
N2   N   0.381421392760113   0.047669217387127   0.113669967482542   1.0000000
N2   N   0.381342799481457   0.191351018967193   0.117312432845362   1.0000000
N2   N   0.379965994533425   0.334227525167723   0.121702485850262   1.0000000
N2   N   0.378236599463800   0.480428956175635   0.115011951874853   1.0000000
N2   N   0.375266221237271   0.616986711991530   0.107973148194131   1.0000000
N2   N   0.380227131083602   0.760431916406768   0.113197355296500   1.0000000
N2   N   0.523098608827787   0.900774205105998   0.116809086980772   1.0000000
N2   N   0.523509392053049   0.045789874466086   0.116493218919037   1.0000000
N2   N   0.523785087362740   0.190082200027608   0.119016514985895   1.0000000
N2   N   0.523796802111392   0.333923207786937   0.131065284173970   1.0000000
N2   N   0.522053810562709   0.753471589193839   0.121060017711120   1.0000000
N2   N   0.665481238758142   0.901571072318138   0.112237581078190   1.0000000
N2   N   0.665712053069723   0.045339644020492   0.114444030885742   1.0000000
N2   N   0.665932846039556   0.189156814625022   0.115233357508707   1.0000000
N2   N   0.666386885007022   0.333079399128787   0.118291654787310   1.0000000
N2   N   0.670170316385976   0.477354388476757   0.120818477825706   1.0000000
N2   N   0.674554513445688   0.622488955648814   0.111972351528319   1.0000000
N2   N   0.669020223557936   0.761554395912381   0.111013141514756   1.0000000
N2   N   0.810445807384405   0.904782816262323   0.102176126560602   1.0000000
N2   N   0.808556679241671   0.045898061450157   0.108863102250483   1.0000000
N2   N   0.808244816589937   0.188757300578413   0.109938857895122   1.0000000
N2   N   0.808454938405624   0.332025637428039   0.109531513005284   1.0000000
N2   N   0.810208226479331   0.475492214235591   0.106612277697445   1.0000000
N2   N   0.812571774466767   0.619350535741456   0.098573636123133   1.0000000
N2   N   0.812891999017248   0.763659801107179   0.094891121957427   1.0000000
P2   P   0.524552274826067   0.492723803383336   0.193707509499296   1.0000000


