data_1
_audit_creation_method   'vasp2cif'
_cell_length_a    14.93631414619966
_cell_length_b    14.936314146199727
_cell_length_c    13.341276283792837
_cell_angle_alpha    90.0
_cell_angle_beta    90.0
_cell_angle_gamma    119.99999999999984

_symmetry_space_group_name_H-M    'P 1'
loop_
_atom_site_label
_atom_site_type_symbol
_atom_site_fract_x
_atom_site_fract_y
_atom_site_fract_z
_atom_site_occupancy
C2   C   0.391926638005415   0.447305344856354   0.375000000000000   1.0000000
C2   C   0.450805038216185   0.401610076432369   0.375000000000000   1.0000000
C2   C   0.555378706850937   0.447305344856354   0.375000000000000   1.0000000
N2   N   0.111050612166249   0.055538550191662   0.124783528876785   1.0000000
N2   N   0.611133711289105   0.555619940174008   0.124341855528528   1.0000000
N2   N   0.444487938025413   0.055538550191662   0.124783528876785   1.0000000
N2   N   0.944431343072415   0.555544188143668   0.124861491616433   1.0000000
N2   N   0.777775387033182   0.055550774066366   0.124861550748644   1.0000000
N2   N   0.111114085557493   0.722228171114978   0.625132306065649   1.0000000
N2   N   0.444485267511526   0.722253073042670   0.625233474603165   1.0000000
N2   N   0.277628989251669   0.222173658632671   0.625910698625994   1.0000000
N2   N   0.777767805531142   0.722253073042670   0.625233474603165   1.0000000
N2   N   0.611150058479130   0.222173644732774   0.625305820236786   1.0000000
N2   N   0.944410841544482   0.222194930313576   0.625130371817411   1.0000000
N2   N   0.277805361397385   0.722233887522702   0.124868892666255   1.0000000
N2   N   0.111023586253651   0.222173644732774   0.124694179763214   1.0000000
N2   N   0.444544669381003   0.222173658632671   0.124089301374006   1.0000000
N2   N   0.611133796012680   0.722267592025354   0.124716759204921   1.0000000
N2   N   0.944428526125316   0.722233887522702   0.124868892666255   1.0000000
N2   N   0.777784088769095   0.222194930313576   0.124869628182588   1.0000000
N2   N   0.111108329942230   0.888911405251758   0.625134377218546   1.0000000
N2   N   0.444485383171101   0.888900861117189   0.625119025967683   1.0000000
N2   N   0.277711497325507   0.388860106191197   0.625459128759665   1.0000000
N2   N   0.611148608865698   0.388860106191197   0.625459128759665   1.0000000
N2   N   0.777773609896084   0.888915046885228   0.625143783175070   1.0000000
N2   N   0.944433849768735   0.388867699537470   0.625147376560663   1.0000000
N2   N   0.111084489928180   0.388860755456865   0.124770875365109   1.0000000
N2   N   0.277803075309535   0.888911405251758   0.124865622781454   1.0000000
N2   N   0.611141436989150   0.888915046885228   0.124856216824930   1.0000000
N2   N   0.444427189029255   0.388854378058509   0.125020385367714   1.0000000
N2   N   0.944415477946088   0.888900861117189   0.124880974032317   1.0000000
N2   N   0.777776265528692   0.388860755456865   0.124770875365109   1.0000000
N2   N   0.277795602234166   0.555557855934321   0.625180580950389   1.0000000
N2   N   0.111050612166249   0.055538550191662   0.625216471123216   1.0000000
N2   N   0.611133711289105   0.555619940174008   0.625658144471474   1.0000000
N2   N   0.444487938025413   0.055538550191662   0.625216471123216   1.0000000
N2   N   0.944431343072415   0.555544188143668   0.625138508383566   1.0000000
N2   N   0.111112845071253   0.555544188143668   0.124861491616433   1.0000000
N2   N   0.777775387033182   0.055550774066366   0.625138449251356   1.0000000
N2   N   0.277791609763329   0.055583219526659   0.124819041413212   1.0000000
N2   N   0.444486228884903   0.555619940174008   0.124341855528528   1.0000000
N2   N   0.777762253700155   0.555557855934321   0.124819419049612   1.0000000
N2   N   0.611143530950818   0.055539231319212   0.124863380952016   1.0000000
N2   N   0.444486228884903   0.555619940174008   0.625658144471474   1.0000000
N2   N   0.944395700368394   0.055539231319212   0.124863380952016   1.0000000
N2   N   0.277805361397385   0.722233887522702   0.625131107333744   1.0000000
N2   N   0.111023586253651   0.222173644732774   0.625305820236786   1.0000000
N2   N   0.444544669381003   0.222173658632671   0.625910698625994   1.0000000
N2   N   0.611133796012680   0.722267592025354   0.625283240795079   1.0000000
N2   N   0.944428526125316   0.722233887522702   0.625131107333744   1.0000000
N2   N   0.777784088769095   0.222194930313576   0.625130371817411   1.0000000
N2   N   0.111114085557493   0.722228171114978   0.124867693934351   1.0000000
N2   N   0.444485267511526   0.722253073042670   0.124766525396836   1.0000000
N2   N   0.277628989251669   0.222173658632671   0.124089301374006   1.0000000
N2   N   0.777767805531142   0.722253073042670   0.124766525396836   1.0000000
N2   N   0.611150058479130   0.222173644732774   0.124694179763214   1.0000000
N2   N   0.944410841544482   0.222194930313576   0.124869628182588   1.0000000
N2   N   0.111084489928180   0.388860755456865   0.625229124634891   1.0000000
N2   N   0.277803075309535   0.888911405251758   0.625134377218546   1.0000000
N2   N   0.611141436989150   0.888915046885228   0.625143783175070   1.0000000
N2   N   0.444427189029255   0.388854378058509   0.624979614632286   1.0000000
N2   N   0.944415477946088   0.888900861117189   0.625119025967683   1.0000000
N2   N   0.111108329942230   0.888911405251758   0.124865622781454   1.0000000
N2   N   0.777776265528692   0.388860755456865   0.625229124634891   1.0000000
N2   N   0.444485383171101   0.888900861117189   0.124880974032317   1.0000000
N2   N   0.277711497325507   0.388860106191197   0.124540871240334   1.0000000
N2   N   0.277795602234166   0.555557855934321   0.124819419049612   1.0000000
N2   N   0.611148608865698   0.388860106191197   0.124540871240334   1.0000000
N2   N   0.777773609896084   0.888915046885228   0.124856216824930   1.0000000
N2   N   0.944433849768735   0.388867699537470   0.124852623439337   1.0000000
N2   N   0.111112845071253   0.555544188143668   0.625138508383566   1.0000000
N2   N   0.277791609763329   0.055583219526659   0.625180958586788   1.0000000
N2   N   0.777762253700155   0.555557855934321   0.625180580950389   1.0000000
N2   N   0.611143530950818   0.055539231319212   0.625136619047984   1.0000000
N2   N   0.944395700368394   0.055539231319212   0.625136619047984   1.0000000
N2   N   0.057942150539809   0.110731311940926   0.375000000000000   1.0000000
N2   N   0.559402895253965   0.618805790507929   0.375000000000000   1.0000000
N2   N   0.384059265014745   0.107166036898626   0.375000000000000   1.0000000
N2   N   0.887685209252814   0.609465086109212   0.375000000000000   1.0000000
N2   N   0.721660103136563   0.111983294749610   0.375000000000000   1.0000000
N2   N   0.055560809729186   0.777779311966478   0.875000000000000   1.0000000
N2   N   0.388881840798360   0.777781471704469   0.875000000000000   1.0000000
N2   N   0.222222654011655   0.277791782918828   0.875000000000000   1.0000000
N2   N   0.722226285261301   0.777777385675395   0.875000000000000   1.0000000
N2   N   0.555569128907172   0.277791782918828   0.875000000000000   1.0000000
N2   N   0.888896718885216   0.277793437770440   0.875000000000000   1.0000000
N2   N   0.220727651908521   0.774696725646000   0.375000000000000   1.0000000
N2   N   0.059020656219353   0.276798976939771   0.375000000000000   1.0000000
N2   N   0.556652022085240   0.781593147836144   0.375000000000000   1.0000000
N2   N   0.890306404537891   0.778689171553123   0.375000000000000   1.0000000
N2   N   0.717778320720418   0.276798976939771   0.375000000000000   1.0000000
N2   N   0.055558219889936   0.944442698035334   0.875000000000000   1.0000000
N2   N   0.388884478145398   0.944442698035334   0.875000000000000   1.0000000
N2   N   0.222216931348161   0.444462799495002   0.875000000000000   1.0000000
N2   N   0.555562061322063   0.444451585057359   0.875000000000000   1.0000000
N2   N   0.722223514641636   0.944447029283273   0.875000000000000   1.0000000
N2   N   0.888905831764388   0.444462370996765   0.875000000000000   1.0000000
N2   N   0.055127792822599   0.442763160088790   0.375000000000000   1.0000000
N2   N   0.219348644404687   0.938697288809374   0.375000000000000   1.0000000
N2   N   0.555207464749544   0.946075054942320   0.375000000000000   1.0000000
N2   N   0.890867590192775   0.946075054942320   0.375000000000000   1.0000000
N2   N   0.720654978309329   0.442884105139742   0.375000000000000   1.0000000
N2   N   0.222213138007959   0.611122474232717   0.875000000000000   1.0000000
N2   N   0.055563033154100   0.111114576154024   0.875000000000000   1.0000000
N2   N   0.555555636749446   0.611111273498894   0.875000000000000   1.0000000
N2   N   0.388882406306796   0.111102491242502   0.875000000000000   1.0000000
N2   N   0.888909336224752   0.611122474232717   0.875000000000000   1.0000000
N2   N   0.054346113004187   0.608692226008374   0.375000000000000   1.0000000
N2   N   0.722221455602963   0.111118121222434   0.875000000000000   1.0000000
N2   N   0.223106771883875   0.107166036898626   0.375000000000000   1.0000000
N2   N   0.389720516385589   0.614704994924624   0.375000000000000   1.0000000
N2   N   0.724984478539028   0.614704994924624   0.375000000000000   1.0000000
N2   N   0.552789161401118   0.110731311940926   0.375000000000000   1.0000000
N2   N   0.388879301011434   0.611116164397473   0.875000000000000   1.0000000
N2   N   0.890323191613039   0.111983294749610   0.375000000000000   1.0000000
N2   N   0.222218502237292   0.777779311966478   0.875000000000000   1.0000000
N2   N   0.055560679723156   0.277792642137554   0.875000000000000   1.0000000
N2   N   0.388892318389500   0.277784636779008   0.875000000000000   1.0000000
N2   N   0.555551100414094   0.777777385675395   0.875000000000000   1.0000000
N2   N   0.888899630906102   0.777781471704469   0.875000000000000   1.0000000
N2   N   0.722231962414398   0.277792642137554   0.875000000000000   1.0000000
N2   N   0.053969073737478   0.774696725646000   0.375000000000000   1.0000000
N2   N   0.388382767015224   0.778689171553123   0.375000000000000   1.0000000
N2   N   0.230740863642429   0.274395288163044   0.375000000000000   1.0000000
N2   N   0.724941125750903   0.781593147836144   0.375000000000000   1.0000000
N2   N   0.543654424520615   0.274395288163044   0.375000000000000   1.0000000
N2   N   0.888561615650633   0.277123231301274   0.375000000000000   1.0000000
N2   N   0.055556539232378   0.444462370996765   0.875000000000000   1.0000000
N2   N   0.222217673376937   0.944435346753873   0.875000000000000   1.0000000
N2   N   0.555549659219126   0.944447626224958   0.875000000000000   1.0000000
N2   N   0.388889523735296   0.444451585057359   0.875000000000000   1.0000000
N2   N   0.888897967005831   0.944447626224958   0.875000000000000   1.0000000
N2   N   0.056087450479569   0.943168772432535   0.375000000000000   1.0000000
N2   N   0.722245868146841   0.444462799495002   0.875000000000000   1.0000000
N2   N   0.387081321952966   0.943168772432535   0.375000000000000   1.0000000
N2   N   0.222229126830414   0.442884105139742   0.375000000000000   1.0000000
N2   N   0.221779876856390   0.609465086109212   0.375000000000000   1.0000000
N2   N   0.723422640870587   0.946845281741177   0.375000000000000   1.0000000
N2   N   0.887635367266190   0.442763160088790   0.375000000000000   1.0000000
N2   N   0.055560539970422   0.611121079940845   0.875000000000000   1.0000000
N2   N   0.222220084935698   0.111102491242502   0.875000000000000   1.0000000
N2   N   0.722236863386032   0.611116164397473   0.875000000000000   1.0000000
N2   N   0.555551542999924   0.111114576154024   0.875000000000000   1.0000000
N2   N   0.888896665619464   0.111118121222434   0.875000000000000   1.0000000
B2   B   0.113752897693831   0.055106790540241   0.375000000000000   1.0000000
B2   B   0.613224000690004   0.561444831764226   0.375000000000000   1.0000000
B2   B   0.441353892846410   0.055106790540241   0.375000000000000   1.0000000
B2   B   0.942965958530683   0.553681181646218   0.375000000000000   1.0000000
B2   B   0.778818900796399   0.057637801592798   0.375000000000000   1.0000000
B2   B   0.111116558739582   0.722233117479158   0.875000000000000   1.0000000
B2   B   0.444414468706038   0.722150713369786   0.875000000000000   1.0000000
B2   B   0.277871764509990   0.222297774535383   0.875000000000000   1.0000000
B2   B   0.777736244663748   0.722150713369786   0.875000000000000   1.0000000
B2   B   0.611051556444614   0.222284176475657   0.875000000000000   1.0000000
B2   B   0.944503747499636   0.222265420431124   0.875000000000000   1.0000000
B2   B   0.277168761881929   0.720409730525197   0.375000000000000   1.0000000
B2   B   0.119183036190431   0.222128033725542   0.375000000000000   1.0000000
B2   B   0.422888315920310   0.220027861435899   0.375000000000000   1.0000000
B2   B   0.613667130253443   0.727334260506880   0.375000000000000   1.0000000
B2   B   0.943240968643268   0.720409730525197   0.375000000000000   1.0000000
B2   B   0.775830130236745   0.222939805991724   0.375000000000000   1.0000000
B2   B   0.111147258002079   0.888929408899954   0.875000000000000   1.0000000
B2   B   0.444417008652923   0.888892344460776   0.875000000000000   1.0000000
B2   B   0.277858137526950   0.388893082628441   0.875000000000000   1.0000000
B2   B   0.611034945101498   0.388893082628441   0.875000000000000   1.0000000
B2   B   0.777774336323341   0.888853333742954   0.875000000000000   1.0000000
B2   B   0.944459384432184   0.388918768864368   0.875000000000000   1.0000000
B2   B   0.112335997833228   0.387918765187743   0.375000000000000   1.0000000
B2   B   0.276168228212103   0.885596284956821   0.375000000000000   1.0000000
B2   B   0.611841387465966   0.891737714979516   0.375000000000000   1.0000000
B2   B   0.945813270840478   0.889511511155779   0.375000000000000   1.0000000
B2   B   0.775582767354521   0.387918765187743   0.375000000000000   1.0000000
B2   B   0.277800808385421   0.555519848058831   0.875000000000000   1.0000000
B2   B   0.111209819025578   0.055625592602628   0.875000000000000   1.0000000
B2   B   0.611034802782624   0.555454397990683   0.875000000000000   1.0000000
B2   B   0.444415773577050   0.055625592602628   0.875000000000000   1.0000000
B2   B   0.944429200226582   0.555557751473770   0.875000000000000   1.0000000
B2   B   0.110715223115536   0.553681181646218   0.375000000000000   1.0000000
B2   B   0.777785711780487   0.055571423560975   0.875000000000000   1.0000000
B2   B   0.274611804272372   0.049223608544744   0.375000000000000   1.0000000
B2   B   0.448220831074221   0.561444831764226   0.375000000000000   1.0000000
B2   B   0.775656823739347   0.554315743087538   0.375000000000000   1.0000000
B2   B   0.609883349893637   0.057164182288990   0.375000000000000   1.0000000
B2   B   0.444419595208059   0.555454397990683   0.875000000000000   1.0000000
B2   B   0.947280832395353   0.057164182288990   0.375000000000000   1.0000000
B2   B   0.277774019231222   0.722209090187314   0.875000000000000   1.0000000
B2   B   0.111232620031051   0.222284176475657   0.875000000000000   1.0000000
B2   B   0.444426010025394   0.222297774535383   0.875000000000000   1.0000000
B2   B   0.611057714958481   0.722115429916956   0.875000000000000   1.0000000
B2   B   0.944435070956091   0.722209090187314   0.875000000000000   1.0000000
B2   B   0.777761672931488   0.222265420431124   0.875000000000000   1.0000000
B2   B   0.109768031322760   0.719536062645513   0.375000000000000   1.0000000
B2   B   0.444885484821547   0.724406131424736   0.375000000000000   1.0000000
B2   B   0.297139545515589   0.220027861435899   0.375000000000000   1.0000000
B2   B   0.779520646603190   0.724406131424736   0.375000000000000   1.0000000
B2   B   0.602944997535118   0.222128033725542   0.375000000000000   1.0000000
B2   B   0.947109675754979   0.222939805991724   0.375000000000000   1.0000000
B2   B   0.111185020402484   0.388915361949647   0.875000000000000   1.0000000
B2   B   0.277782150897882   0.888929408899954   0.875000000000000   1.0000000
B2   B   0.611078997419621   0.888853333742954   0.875000000000000   1.0000000
B2   B   0.444434357017140   0.388868714034279   0.875000000000000   1.0000000
B2   B   0.944475335807852   0.888892344460776   0.875000000000000   1.0000000
B2   B   0.109428056744726   0.885596284956821   0.375000000000000   1.0000000
B2   B   0.777730341547169   0.388915361949647   0.875000000000000   1.0000000
B2   B   0.443698240315301   0.889511511155779   0.375000000000000   1.0000000
B2   B   0.278633227023870   0.385659635465553   0.375000000000000   1.0000000
B2   B   0.278658919348191   0.554315743087538   0.375000000000000   1.0000000
B2   B   0.607026408441691   0.385659635465553   0.375000000000000   1.0000000
B2   B   0.779896327513558   0.891737714979516   0.375000000000000   1.0000000
B2   B   0.943980041816446   0.387960083632893   0.375000000000000   1.0000000
B2   B   0.111128551247188   0.555557751473770   0.875000000000000   1.0000000
B2   B   0.277820614030126   0.055641228060252   0.875000000000000   1.0000000
B2   B   0.777719039673409   0.555519848058831   0.875000000000000   1.0000000
B2   B   0.611072779017293   0.055589110089250   0.875000000000000   1.0000000
B2   B   0.944516331071956   0.055589110089250   0.875000000000000   1.0000000
B2   B   0.055694184431291   0.111226241319231   0.125326323892376   1.0000000
B2   B   0.555423520910097   0.610847041820193   0.125351506608151   1.0000000
B2   B   0.389026109155380   0.111465601217560   0.125549055207192   1.0000000
B2   B   0.888672925044441   0.611013324202252   0.125274980808943   1.0000000
B2   B   0.722196941264366   0.111125495942441   0.125235230493062   1.0000000
B2   B   0.055551493103120   0.777856327052130   0.624782879300215   1.0000000
B2   B   0.388980193679338   0.777750660208778   0.624759991767514   1.0000000
B2   B   0.222462133386314   0.277818594865768   0.624455476732991   1.0000000
B2   B   0.722112645136678   0.777670326054572   0.624770841323844   1.0000000
B2   B   0.555356461479454   0.277818594865768   0.624455476732991   1.0000000
B2   B   0.888869623651789   0.277739247303586   0.624742990654884   1.0000000
B2   B   0.222304833949010   0.777856327052130   0.125217120699785   1.0000000
B2   B   0.055684367159204   0.277747422065218   0.125310969727731   1.0000000
B2   B   0.388927619594632   0.277855239189271   0.127379226442550   1.0000000
B2   B   0.555557680917895   0.777670326054572   0.125229158676157   1.0000000
B2   B   0.888770466529434   0.777750660208778   0.125240008232486   1.0000000
B2   B   0.722063054906014   0.277747422065218   0.125310969727731   1.0000000
B2   B   0.055635329038019   0.944617188323723   0.624696876323472   1.0000000
B2   B   0.388981859285705   0.944617188323723   0.624696876323472   1.0000000
B2   B   0.222434891732208   0.444289871113589   0.624574671271956   1.0000000
B2   B   0.555245912750150   0.444246793320570   0.623170386902876   1.0000000
B2   B   0.722213524845440   0.944427049690879   0.624799072356764   1.0000000
B2   B   0.888738586722903   0.444351677129886   0.624764344720346   1.0000000
B2   B   0.055613090406984   0.444351677129886   0.125235655279654   1.0000000
B2   B   0.222370299214783   0.944740598429566   0.125355150205147   1.0000000
B2   B   0.555584501451240   0.944475821708563   0.125239645866000   1.0000000
B2   B   0.389000880570420   0.444246793320570   0.126829613097124   1.0000000
B2   B   0.888891320257324   0.944475821708563   0.125239645866000   1.0000000
B2   B   0.721854979381381   0.444289871113589   0.125425328728044   1.0000000
B2   B   0.222340399157803   0.611013324202251   0.624725019191057   1.0000000
B2   B   0.055694184431291   0.111226241319231   0.624673676107624   1.0000000
B2   B   0.555423520910097   0.610847041820193   0.624648493391849   1.0000000
B2   B   0.389026109155380   0.111465601217560   0.624450944792809   1.0000000
B2   B   0.888672925044441   0.611013324202252   0.624725019191057   1.0000000
B2   B   0.055531623121908   0.611063246243815   0.125202548393620   1.0000000
B2   B   0.722196941264366   0.111125495942441   0.624764769506938   1.0000000
B2   B   0.222439492062173   0.111465601217560   0.125549055207192   1.0000000
B2   B   0.389021006876983   0.610899355825020   0.125318889941017   1.0000000
B2   B   0.721878348948029   0.610899355825020   0.125318889941017   1.0000000
B2   B   0.555532056887941   0.111226241319231   0.125326323892376   1.0000000
B2   B   0.389021006876983   0.610899355825020   0.624681110058983   1.0000000
B2   B   0.888928554678070   0.111125495942441   0.125235230493062   1.0000000
B2   B   0.222304833949010   0.777856327052130   0.624782879300215   1.0000000
B2   B   0.055684367159204   0.277747422065218   0.624689030272268   1.0000000
B2   B   0.388927619594632   0.277855239189271   0.622620773557449   1.0000000
B2   B   0.555557680917895   0.777670326054572   0.624770841323844   1.0000000
B2   B   0.888770466529434   0.777750660208778   0.624759991767514   1.0000000
B2   B   0.722063054906014   0.277747422065218   0.624689030272268   1.0000000
B2   B   0.055551493103120   0.777856327052130   0.125217120699785   1.0000000
B2   B   0.388980193679338   0.777750660208778   0.125240008232486   1.0000000
B2   B   0.222462133386314   0.277818594865768   0.125544523267010   1.0000000
B2   B   0.722112645136678   0.777670326054572   0.125229158676157   1.0000000
B2   B   0.555356461479454   0.277818594865768   0.125544523267010   1.0000000
B2   B   0.888869623651789   0.277739247303586   0.125257009345116   1.0000000
B2   B   0.055613090406984   0.444351677129886   0.624764344720346   1.0000000
B2   B   0.222370299214783   0.944740598429566   0.624644849794853   1.0000000
B2   B   0.555584501451240   0.944475821708563   0.624760354134000   1.0000000
B2   B   0.389000880570420   0.444246793320570   0.623170386902876   1.0000000
B2   B   0.888891320257324   0.944475821708563   0.624760354134000   1.0000000
B2   B   0.055635329038019   0.944617188323723   0.125303123676527   1.0000000
B2   B   0.721854979381381   0.444289871113589   0.624574671271956   1.0000000
B2   B   0.388981859285705   0.944617188323723   0.125303123676527   1.0000000
B2   B   0.222434891732208   0.444289871113589   0.125425328728044   1.0000000
B2   B   0.222340399157803   0.611013324202252   0.125274980808943   1.0000000
B2   B   0.555245912750150   0.444246793320570   0.126829613097124   1.0000000
B2   B   0.722213524845440   0.944427049690879   0.125200927643235   1.0000000
B2   B   0.888738586722903   0.444351677129886   0.125235655279654   1.0000000
B2   B   0.055531623121908   0.611063246243815   0.624797451606380   1.0000000
B2   B   0.222439492062173   0.111465601217560   0.624450944792809   1.0000000
B2   B   0.721878348948029   0.610899355825020   0.624681110058983   1.0000000
B2   B   0.555532056887941   0.111226241319231   0.624673676107624   1.0000000
B2   B   0.888928554678070   0.111125495942441   0.624764769506938   1.0000000


