data_1
_audit_creation_method   'vasp2cif'
_cell_length_a    17.52789999999977
_cell_length_b    17.52789999999977
_cell_length_c    15.0
_cell_angle_alpha    90.0
_cell_angle_beta    90.0
_cell_angle_gamma    119.99999999999916

_symmetry_space_group_name_H-M    'P 1'
loop_
_atom_site_label
_atom_site_type_symbol
_atom_site_fract_x
_atom_site_fract_y
_atom_site_fract_z
_atom_site_occupancy
B2   B   0.905604404404144   0.953396316010157   0.119142326996852   1.0000000
B2   B   0.904378930168967   0.095775786822185   0.118918069000993   1.0000000
B2   B   0.903987207382233   0.238591379512710   0.117540717116292   1.0000000
B2   B   0.904099645247561   0.381414678985671   0.115936717689181   1.0000000
B2   B   0.905071970542648   0.524282041004637   0.114670491555668   1.0000000
B2   B   0.906531946204606   0.667483940416688   0.115275350942310   1.0000000
B2   B   0.907044835752594   0.811122671018037   0.117637644305155   1.0000000
B2   B   0.048050911337327   0.952098029959017   0.119261706151382   1.0000000
B2   B   0.046749458959508   0.094537329917142   0.119133503924993   1.0000000
B2   B   0.046435404507565   0.237733116002372   0.116578188520243   1.0000000
B2   B   0.046886860619719   0.380832992749685   0.114067734522610   1.0000000
B2   B   0.048024194975105   0.523633410755678   0.114124180940402   1.0000000
B2   B   0.048824835661497   0.666471781727665   0.115737528963088   1.0000000
B2   B   0.048815932248818   0.809402439766820   0.117765576504784   1.0000000
B2   B   0.190733847315767   0.951322681900409   0.117755046345083   1.0000000
B2   B   0.189021618551979   0.093100933382540   0.117611295682646   1.0000000
B2   B   0.187694439267975   0.235533255433795   0.114243492151038   1.0000000
B2   B   0.188822881251805   0.379724513827796   0.108214750224755   1.0000000
B2   B   0.191036069770836   0.522916259692931   0.107136937730601   1.0000000
B2   B   0.191741586941780   0.665847572787320   0.110835927942246   1.0000000
B2   B   0.191440615290572   0.808703296608881   0.115300735440173   1.0000000
B2   B   0.333674389659841   0.951326569773072   0.115715068915428   1.0000000
B2   B   0.332651633760052   0.093606551649681   0.115255780938557   1.0000000
B2   B   0.329342842526753   0.233451817008307   0.110707115098276   1.0000000
B2   B   0.327568678079200   0.376194762285837   0.100156020574826   1.0000000
B2   B   0.334066021921215   0.521190522423378   0.094605767173237   1.0000000
B2   B   0.335033001419986   0.665126713124664   0.101955135934733   1.0000000
B2   B   0.334310556371075   0.808416350152637   0.110824315459788   1.0000000
B2   B   0.476519107399868   0.952132351688729   0.114110548385055   1.0000000
B2   B   0.475867086690031   0.095079166898837   0.114653670445235   1.0000000
B2   B   0.474678229686701   0.237456214570135   0.107971614266566   1.0000000
B2   B   0.467227104742263   0.373161671893607   0.095365027290998   1.0000000
B2   B   0.478962301200136   0.666086444851774   0.094622444554422   1.0000000
B2   B   0.477239781796210   0.809119219757243   0.107141418956070   1.0000000
B2   B   0.619324369054493   0.953273608401429   0.114076523782913   1.0000000
B2   B   0.618738584691375   0.096055019317392   0.115931922884697   1.0000000
B2   B   0.618190363032395   0.239144845131945   0.111596221999308   1.0000000
B2   B   0.617539890548479   0.382600406880551   0.102270731084919   1.0000000
B2   B   0.626986180182894   0.532922860252753   0.095349839324021   1.0000000
B2   B   0.623952759976065   0.672576297464377   0.100157499655163   1.0000000
B2   B   0.620431464022799   0.811331347768383   0.108234199740046   1.0000000
B2   B   0.762417508966215   0.953723800747579   0.116593006766238   1.0000000
B2   B   0.761568256682711   0.096178698038144   0.117543758814021   1.0000000
B2   B   0.761153266338777   0.239000821535143   0.115915004409736   1.0000000
B2   B   0.760994990566223   0.381952374787335   0.111593438299957   1.0000000
B2   B   0.762685979097411   0.525465753149558   0.107970243106267   1.0000000
B2   B   0.766696517215819   0.670804361404522   0.110712165616550   1.0000000
B2   B   0.764612357307868   0.812457991808889   0.114259202062621   1.0000000
N2   N   0.953427948765373   0.905713042679900   0.119304310112199   1.0000000
N2   N   0.952081214433337   0.048065698272183   0.119632759198899   1.0000000
N2   N   0.951441714793526   0.190773520401074   0.118251130256918   1.0000000
N2   N   0.951562155644276   0.333696669058279   0.116569266545801   1.0000000
N2   N   0.952423082230653   0.476520742381861   0.115709592061026   1.0000000
N2   N   0.953459625386014   0.619360292021576   0.115828480328160   1.0000000
N2   N   0.953834322551378   0.762518686023342   0.117517001673601   1.0000000
N2   N   0.095768891542992   0.904372299217504   0.118519179440143   1.0000000
N2   N   0.094434701512959   0.046718317410182   0.119292288208905   1.0000000
N2   N   0.093265363077604   0.189200406265764   0.117571793018028   1.0000000
N2   N   0.093834981930024   0.332751030480769   0.113324916436986   1.0000000
N2   N   0.095438057757122   0.475924236746617   0.112079339285060   1.0000000
N2   N   0.096274792327006   0.618750216055047   0.113962246128538   1.0000000
N2   N   0.096279032987921   0.761567745622033   0.116543392082160   1.0000000
N2   N   0.238575886395291   0.903868807835805   0.116535107750541   1.0000000
N2   N   0.237621338571132   0.046306951639633   0.117492064716695   1.0000000
N2   N   0.235179780106799   0.187498498075339   0.115135709443453   1.0000000
N2   N   0.233896427609213   0.329811406186463   0.108657306057840   1.0000000
N2   N   0.238050790223132   0.474851577236187   0.103371763496235   1.0000000
N2   N   0.239354534486289   0.618188263320588   0.106105930219561   1.0000000
N2   N   0.239072800941503   0.761084257097168   0.112187157951623   1.0000000
N2   N   0.381402827102206   0.903882101987510   0.113938903022426   1.0000000
N2   N   0.380784951106515   0.046688375263381   0.115803466757172   1.0000000
N2   N   0.379559725407782   0.188692650851530   0.111530297055596   1.0000000
N2   N   0.374772803110798   0.327402110050212   0.103721406129709   1.0000000
N2   N   0.375851667867560   0.468641835996980   0.088406607470451   1.0000000
N2   N   0.382790768158372   0.617370067395872   0.094377243493027   1.0000000
N2   N   0.381968105564864   0.760802836339886   0.106102475634054   1.0000000
N2   N   0.524232441081011   0.904720956342170   0.112075474260813   1.0000000
N2   N   0.523631249211748   0.047733293506734   0.115692048877427   1.0000000
N2   N   0.522962299671623   0.190746867823246   0.111623950003744   1.0000000
N2   N   0.521531289940827   0.333646663858762   0.100444733537731   1.0000000
N2   N   0.531504942874483   0.624290361736566   0.088414901711530   1.0000000
N2   N   0.525305351913278   0.762104513281924   0.103391674358607   1.0000000
N2   N   0.667401687794475   0.906319122921388   0.113341817193160   1.0000000
N2   N   0.666461310745172   0.048598585092499   0.116574099718209   1.0000000
N2   N   0.665889942964278   0.191582330119301   0.115044564531123   1.0000000
N2   N   0.665238748478569   0.334901500848353   0.108358667869719   1.0000000
N2   N   0.666496347773067   0.478613633326228   0.100431472767601   1.0000000
N2   N   0.672750070366978   0.625379331837774   0.103708740067841   1.0000000
N2   N   0.670338352609681   0.766253650300032   0.108666889791914   1.0000000
N2   N   0.810944360436388   0.906886457350379   0.117585487213356   1.0000000
N2   N   0.809379829613309   0.048716686162440   0.118257854767759   1.0000000
N2   N   0.808787234274344   0.191374805616846   0.117588265914993   1.0000000
N2   N   0.808570069281219   0.334263378568194   0.115047413447594   1.0000000
N2   N   0.809399076740142   0.477182131341405   0.111626011755202   1.0000000
N2   N   0.811450394287073   0.620584345048236   0.111541074541900   1.0000000
N2   N   0.812648998097392   0.764971351401087   0.115162083189620   1.0000000
Ge2   Ge   0.495088963343425   0.505048341248721   0.061021550709235   1.0000000


