data_1
_audit_creation_method   'vasp2cif'
_cell_length_a    17.52789999999977
_cell_length_b    17.52789999999977
_cell_length_c    15.0
_cell_angle_alpha    90.0
_cell_angle_beta    90.0
_cell_angle_gamma    119.99999999999916

_symmetry_space_group_name_H-M    'P 1'
loop_
_atom_site_label
_atom_site_type_symbol
_atom_site_fract_x
_atom_site_fract_y
_atom_site_fract_z
_atom_site_occupancy
B2   B   0.906786223047482   0.954683178705277   0.111022797282328   1.0000000
B2   B   0.904117930634839   0.095884090561129   0.110999748043977   1.0000000
B2   B   0.903421118962197   0.238203954117254   0.111029542202725   1.0000000
B2   B   0.904343890254198   0.381149616543072   0.110949832842460   1.0000000
B2   B   0.907591213126923   0.524782330207157   0.111004484379847   1.0000000
B2   B   0.908998601990111   0.668839279481125   0.111087911406822   1.0000000
B2   B   0.910093863773937   0.813581914686972   0.111041380843051   1.0000000
B2   B   0.048198688202406   0.951803332993574   0.111023507702753   1.0000000
B2   B   0.045318842490719   0.093215798148500   0.111022797282328   1.0000000
B2   B   0.044226542144691   0.236340511902076   0.110977490270647   1.0000000
B2   B   0.045001695772967   0.380237159513242   0.110966295314452   1.0000000
B2   B   0.047206264436080   0.523986474352961   0.110987409582998   1.0000000
B2   B   0.049483702179568   0.667065568519283   0.111068561994567   1.0000000
B2   B   0.049650827873459   0.809783209666508   0.111069152036666   1.0000000
B2   B   0.190218811529527   0.950351193322563   0.111069152036666   1.0000000
B2   B   0.186420106509035   0.089908157422075   0.111041380843051   1.0000000
B2   B   0.183215409690853   0.231599762365112   0.111000838390373   1.0000000
B2   B   0.184253262086688   0.377440480064540   0.111004622822004   1.0000000
B2   B   0.186565015094493   0.523236623167245   0.111056982146114   1.0000000
B2   B   0.191125882218412   0.666471518937268   0.111082514253415   1.0000000
B2   B   0.191245062823562   0.808756958372449   0.111048533299868   1.0000000
B2   B   0.332936452677706   0.950518319016421   0.111068561994567   1.0000000
B2   B   0.331162741715857   0.091003419205867   0.111087911406822   1.0000000
B2   B   0.323263613527909   0.226794375416225   0.111067239965177   1.0000000
B2   B   0.320048128212084   0.370247203583138   0.111011931118626   1.0000000
B2   B   0.323212268377957   0.519374461779755   0.111116843825424   1.0000000
B2   B   0.333802938528907   0.666199082668077   0.111161577740333   1.0000000
B2   B   0.333530502259744   0.808876138977600   0.111082514253415   1.0000000
B2   B   0.476015546844044   0.952795756759913   0.110987409582998   1.0000000
B2   B   0.475219690989846   0.092410808069046   0.111004484379847   1.0000000
B2   B   0.473786442406492   0.230332307596850   0.111030608214757   1.0000000
B2   B   0.455373023740156   0.349496938223885   0.110968096062541   1.0000000
B2   B   0.480627559417275   0.676789752819050   0.111116843825424   1.0000000
B2   B   0.476765398029751   0.813437006101537   0.111056982146114   1.0000000
B2   B   0.619764861682796   0.955000325423046   0.110966295314452   1.0000000
B2   B   0.618852404652918   0.095658130941796   0.110949832842460   1.0000000
B2   B   0.618824341801439   0.236968306431248   0.110973982252265   1.0000000
B2   B   0.620462134599470   0.379539886596546   0.110986182093601   1.0000000
B2   B   0.650505082972150   0.544628997456831   0.110968096062538   1.0000000
B2   B   0.629754817612869   0.679953892984901   0.111011931118624   1.0000000
B2   B   0.622561541131466   0.815748759109324   0.111004622822004   1.0000000
B2   B   0.763661509293931   0.955775479051314   0.110977490270647   1.0000000
B2   B   0.761798067078752   0.096580902233780   0.111029542202725   1.0000000
B2   B   0.761593483216951   0.238408537979053   0.111006558842389   1.0000000
B2   B   0.763033714764744   0.381177679394573   0.110973982252265   1.0000000
B2   B   0.769669713599163   0.526215578790509   0.111030608214757   1.0000000
B2   B   0.773207645779764   0.676738407669106   0.111067239965177   1.0000000
B2   B   0.768402258830899   0.816786611505158   0.111000838390373   1.0000000
N2   N   0.954678876125010   0.907149185254572   0.111000372843457   1.0000000
N2   N   0.951678544552914   0.048322857365090   0.111012104015415   1.0000000
N2   N   0.950195349330843   0.190224985397937   0.110989499899648   1.0000000
N2   N   0.950616948131717   0.333000223481797   0.110960481965788   1.0000000
N2   N   0.952896726001442   0.476205092756987   0.110935064991762   1.0000000
N2   N   0.954881183980628   0.619855890797681   0.111053506690323   1.0000000
N2   N   0.955482918888573   0.763668845109125   0.111055053743223   1.0000000
N2   N   0.095827127979188   0.904174273938794   0.111037852170492   1.0000000
N2   N   0.092852216663418   0.045322525793013   0.111000372843457   1.0000000
N2   N   0.089973110775958   0.186967607269206   0.110972966749561   1.0000000
N2   N   0.090452477950598   0.331095514313298   0.110958410984995   1.0000000
N2   N   0.092508356019728   0.475418671536328   0.110964363548630   1.0000000
N2   N   0.096088400884066   0.619005425676734   0.111029669696002   1.0000000
N2   N   0.096631140957685   0.761815030910401   0.111043966919264   1.0000000
N2   N   0.238186371007620   0.903370260960285   0.111043966919264   1.0000000
N2   N   0.236332556808881   0.044518483029450   0.111055053743223   1.0000000
N2   N   0.230232878624378   0.182922087373123   0.111037194888739   1.0000000
N2   N   0.227146912421155   0.325127851680479   0.110982030496293   1.0000000
N2   N   0.229903876256176   0.473399802306041   0.111050972959741   1.0000000
N2   N   0.238052582651747   0.618606710988240   0.111094955618927   1.0000000
N2   N   0.238649199620669   0.761352202297327   0.111054694371534   1.0000000
N2   N   0.380995976241243   0.903913001033933   0.111029669696002   1.0000000
N2   N   0.380145511120334   0.045120217937390   0.111053506690323   1.0000000
N2   N   0.377652094269117   0.185126447954812   0.111065094748040   1.0000000
N2   N   0.365360134718355   0.319164336210588   0.110978571445294   1.0000000
N2   N   0.357180634281730   0.462053686840249   0.111040384713376   1.0000000
N2   N   0.381694268658541   0.618307133259450   0.111149472209111   1.0000000
N2   N   0.381394690929747   0.761948819266241   0.111094955618927   1.0000000
N2   N   0.524582730380657   0.907493045898279   0.110964363548630   1.0000000
N2   N   0.523796309159991   0.047104675916557   0.110935064991762   1.0000000
N2   N   0.523399560927278   0.186653377656711   0.110985330991597   1.0000000
N2   N   0.522492208287966   0.324604055860439   0.110976244880771   1.0000000
N2   N   0.537947715076761   0.642820767636252   0.111040384713376   1.0000000
N2   N   0.526601599610937   0.770097525661826   0.111050972959741   1.0000000
N2   N   0.668905887603723   0.909548923967392   0.110958410984995   1.0000000
N2   N   0.667001178435197   0.049384453786309   0.110960481965788   1.0000000
N2   N   0.666638346177719   0.190533708507768   0.110952222938121   1.0000000
N2   N   0.667418620466093   0.332582781450908   0.110972863503371   1.0000000
N2   N   0.675397346056580   0.477509193629006   0.110976244880771   1.0000000
N2   N   0.680837065706396   0.634641267199631   0.110978571445294   1.0000000
N2   N   0.674873550236509   0.772854489496887   0.110982030496293   1.0000000
N2   N   0.813033794648787   0.910028291142064   0.110972966749561   1.0000000
N2   N   0.809776416520063   0.049806052587168   0.110989499899648   1.0000000
N2   N   0.808845700913070   0.191155701004926   0.111033354932698   1.0000000
N2   N   0.809467693410245   0.333363055739297   0.110952222938121   1.0000000
N2   N   0.813348024261283   0.476601840989737   0.110985330991597   1.0000000
N2   N   0.814874953963188   0.622349307648871   0.111065094748040   1.0000000
N2   N   0.817079314544869   0.769768523293611   0.111037194888739   1.0000000
Al2   Al   0.465841845272984   0.534160175924024   0.111069473703025   1.0000000
Al2   Al   0.534914100194156   0.465087301722842   0.111114319529748   1.0000000


