data_1
_audit_creation_method   'vasp2cif'
_cell_length_a    17.52789999999977
_cell_length_b    17.52789999999977
_cell_length_c    15.0
_cell_angle_alpha    90.0
_cell_angle_beta    90.0
_cell_angle_gamma    119.99999999999916

_symmetry_space_group_name_H-M    'P 1'
loop_
_atom_site_label
_atom_site_type_symbol
_atom_site_fract_x
_atom_site_fract_y
_atom_site_fract_z
_atom_site_occupancy
B2   B   0.904739547913506   0.952332788181369   0.111020718382962   1.0000000
B2   B   0.904794531083769   0.095207237787233   0.111057642715546   1.0000000
B2   B   0.904860246445275   0.238114613606729   0.111065206551773   1.0000000
B2   B   0.904893410981780   0.380995545866121   0.111008228844881   1.0000000
B2   B   0.905195954285225   0.523927338458651   0.111009473164666   1.0000000
B2   B   0.905552798884482   0.667034916913906   0.111101659674542   1.0000000
B2   B   0.905516766167978   0.810101969215199   0.111080226610981   1.0000000
B2   B   0.047654985168215   0.952346736987785   0.111015579436792   1.0000000
B2   B   0.047668917585629   0.095262154278495   0.111020719572957   1.0000000
B2   B   0.047827828011337   0.238200241290085   0.111003159041756   1.0000000
B2   B   0.047833174222264   0.381058646642694   0.111022343572756   1.0000000
B2   B   0.047798902202284   0.523872872536096   0.111016638053025   1.0000000
B2   B   0.047843693372279   0.666786655359645   0.111028159539065   1.0000000
B2   B   0.047887710321459   0.809646569896551   0.110999311547263   1.0000000
B2   B   0.190355173123450   0.952114041717545   0.110999308011254   1.0000000
B2   B   0.189899741094803   0.094484977289020   0.111080224549980   1.0000000
B2   B   0.190723017742433   0.238134735552701   0.111003451002723   1.0000000
B2   B   0.190789720251660   0.381259338340828   0.110992979227678   1.0000000
B2   B   0.190522871581083   0.524057885758460   0.111082240772095   1.0000000
B2   B   0.190255722792182   0.666834489980708   0.111088897004805   1.0000000
B2   B   0.190457188004115   0.809544448333883   0.111006611965436   1.0000000
B2   B   0.333215012102356   0.952157947986720   0.111028156656066   1.0000000
B2   B   0.332966834933096   0.094448940864507   0.111101658670545   1.0000000
B2   B   0.331824778932600   0.235913610978405   0.111046033385395   1.0000000
B2   B   0.334025611264171   0.380319507893130   0.111018094364033   1.0000000
B2   B   0.333117841474564   0.525421999310976   0.111081092715356   1.0000000
B2   B   0.332588848587431   0.667412974024568   0.111122720647126   1.0000000
B2   B   0.333167162045286   0.809745961794816   0.111088895222807   1.0000000
B2   B   0.476128771379905   0.952202689248719   0.111016643349027   1.0000000
B2   B   0.476074381962346   0.094805714939775   0.111009487184669   1.0000000
B2   B   0.475745655559034   0.237088141112658   0.111029974889272   1.0000000
B2   B   0.473124723638368   0.377105984916978   0.110911397363554   1.0000000
B2   B   0.474579729678022   0.666883920776432   0.111081092386353   1.0000000
B2   B   0.475943901252541   0.809478958247913   0.111082240747091   1.0000000
B2   B   0.618943098247305   0.952168553501747   0.111022346305759   1.0000000
B2   B   0.619006112170879   0.095108202924221   0.111008236062879   1.0000000
B2   B   0.618913504108260   0.237990313661828   0.111021675555408   1.0000000
B2   B   0.618887079695387   0.381114719583611   0.110951703687150   1.0000000
B2   B   0.622895749148024   0.526876912072633   0.110911397189549   1.0000000
B2   B   0.619682149732871   0.665975986669824   0.111018091950035   1.0000000
B2   B   0.618742386389169   0.809212043361340   0.110992977392680   1.0000000
B2   B   0.761801481311909   0.952173920238663   0.111003161395756   1.0000000
B2   B   0.761887087296270   0.095141442562727   0.111065206055772   1.0000000
B2   B   0.761915971735724   0.238085651495276   0.111072029039543   1.0000000
B2   B   0.762011418718171   0.381088220518738   0.111021668978411   1.0000000
B2   B   0.762913727982344   0.524256116425971   0.111029967655272   1.0000000
B2   B   0.764088178099593   0.668176913624399   0.111046034944390   1.0000000
B2   B   0.761866920116295   0.809278645959568   0.111003452022729   1.0000000
C2   C   0.474193445795608   0.525808092947392   0.111037957761595   1.0000000
C2   C   0.521460283036251   0.478541470835748   0.110812327646176   1.0000000
N2   N   0.952539047928448   0.904973225762534   0.111022835412923   1.0000000
N2   N   0.952391383952877   0.047610336176122   0.111014607148544   1.0000000
N2   N   0.952618935205137   0.190567924563798   0.111034303160234   1.0000000
N2   N   0.952634321559118   0.333412404927990   0.111013624671690   1.0000000
N2   N   0.952637821635579   0.476214183194816   0.110961864410797   1.0000000
N2   N   0.952691660955187   0.619137770072143   0.111029198313366   1.0000000
N2   N   0.952693301368467   0.762126469044223   0.111055808462354   1.0000000
N2   N   0.095249137970836   0.904752627602168   0.110961174608520   1.0000000
N2   N   0.095028489156467   0.047462678564548   0.111022845919925   1.0000000
N2   N   0.095701326750837   0.190853726578808   0.110979451413871   1.0000000
N2   N   0.095926876015110   0.333674484230937   0.110977094529945   1.0000000
N2   N   0.095616621513678   0.476284446121726   0.111018991334954   1.0000000
N2   N   0.095306741383936   0.619051171008876   0.111027832505070   1.0000000
N2   N   0.095346761394218   0.761931309265295   0.110980495311716   1.0000000
N2   N   0.238070358361702   0.904654890984780   0.110980494388714   1.0000000
N2   N   0.237875274127776   0.047308475986529   0.111055798255351   1.0000000
N2   N   0.237390456048950   0.189773710374365   0.111045512958460   1.0000000
N2   N   0.239651399279014   0.334580537653581   0.110958598547994   1.0000000
N2   N   0.238956688257887   0.476614263023463   0.111013933113535   1.0000000
N2   N   0.237995979817361   0.619142368782775   0.111096780317834   1.0000000
N2   N   0.238087251838328   0.761914397604672   0.111053339232792   1.0000000
N2   N   0.380950472582122   0.904694881835064   0.111027823221069   1.0000000
N2   N   0.380863935241856   0.047309969896817   0.111029203873370   1.0000000
N2   N   0.380543371127972   0.189801240841377   0.111066700105165   1.0000000
N2   N   0.379332779203518   0.331349971052182   0.110956801061150   1.0000000
N2   N   0.384489908721911   0.479459016712860   0.111032424324246   1.0000000
N2   N   0.380556271235810   0.619445483599187   0.111064748088503   1.0000000
N2   N   0.380859429990223   0.762005879037639   0.111096787199831   1.0000000
N2   N   0.523717330195281   0.904385181549322   0.111018996602953   1.0000000
N2   N   0.523787473626182   0.047363722470419   0.110961882407793   1.0000000
N2   N   0.523652050418797   0.190121955502867   0.111011849495555   1.0000000
N2   N   0.522986391018934   0.332684027604513   0.110924661900109   1.0000000
N2   N   0.520542530061142   0.615511591241087   0.111032427857243   1.0000000
N2   N   0.523387473278541   0.761045124825115   0.111013928086537   1.0000000
N2   N   0.666327270995057   0.904074908140896   0.110977093234945   1.0000000
N2   N   0.666589307562007   0.047367352822873   0.111013627382687   1.0000000
N2   N   0.666594742848001   0.190490756060255   0.111028964537314   1.0000000
N2   N   0.666359261853235   0.333642496315764   0.110988380851143   1.0000000
N2   N   0.667317907362489   0.477015384008068   0.110924657057107   1.0000000
N2   N   0.668651824136825   0.620668868946485   0.110956802369152   1.0000000
N2   N   0.665421065725416   0.760350250582993   0.110958593762993   1.0000000
N2   N   0.809147956679191   0.904300381336161   0.110979453086873   1.0000000
N2   N   0.809433845271204   0.047382847956868   0.111034306626233   1.0000000
N2   N   0.809558433033238   0.190443224397762   0.111063796000676   1.0000000
N2   N   0.809510872263745   0.333406900413000   0.111028959021314   1.0000000
N2   N   0.809879769538136   0.476349667616204   0.111011830166555   1.0000000
N2   N   0.810200592707623   0.619458379918028   0.111066699475162   1.0000000
N2   N   0.810228017469636   0.762611237614052   0.111045517710456   1.0000000


