data_1
_audit_creation_method   'vasp2cif'
_cell_length_a    14.93631414619966
_cell_length_b    14.936314146199727
_cell_length_c    13.341276283792837
_cell_angle_alpha    90.0
_cell_angle_beta    90.0
_cell_angle_gamma    119.99999999999984

_symmetry_space_group_name_H-M    'P 1'
loop_
_atom_site_label
_atom_site_type_symbol
_atom_site_fract_x
_atom_site_fract_y
_atom_site_fract_z
_atom_site_occupancy
C2   C   0.717472984244211   0.608939466448033   0.375000000000000   1.0000000
C2   C   0.608903713687186   0.554128131830678   0.375000000000000   1.0000000
C2   C   0.444370897942761   0.389759421152709   0.375000000000000   1.0000000
C2   C   0.552224071588007   0.445983094893898   0.375000000000000   1.0000000
N2   N   0.110785517537788   0.055578086221452   0.125026481886193   1.0000000
N2   N   0.610745292363579   0.555633438888657   0.124402902198836   1.0000000
N2   N   0.444124639420300   0.055590193044235   0.124918139513269   1.0000000
N2   N   0.944098463648144   0.555564838960646   0.124738859014931   1.0000000
N2   N   0.777481234939516   0.055608169017808   0.125007042439354   1.0000000
N2   N   0.110733468248480   0.722224639506789   0.625134879156747   1.0000000
N2   N   0.444094375710560   0.722238663921978   0.625173434276468   1.0000000
N2   N   0.277444675075550   0.222259608041382   0.625138620156173   1.0000000
N2   N   0.777445327644956   0.722353708498673   0.625635148778952   1.0000000
N2   N   0.610816078742804   0.222248007413842   0.625213536999159   1.0000000
N2   N   0.944131203426273   0.222251878991337   0.625015403381582   1.0000000
N2   N   0.277420021250265   0.722226230192522   0.124799162975119   1.0000000
N2   N   0.110763865455468   0.222226937573120   0.124845603178508   1.0000000
N2   N   0.444141862833878   0.222273261033750   0.124789510406049   1.0000000
N2   N   0.610782691719051   0.722296021231607   0.124837330719884   1.0000000
N2   N   0.944061175173569   0.722237146158057   0.124860051829260   1.0000000
N2   N   0.777479848544685   0.222250571550300   0.124975797817522   1.0000000
N2   N   0.110756606124558   0.888907717605470   0.625051619847845   1.0000000
N2   N   0.444103678364738   0.888921708030799   0.625123125416044   1.0000000
N2   N   0.277410286805156   0.388867081201915   0.625183261098232   1.0000000
N2   N   0.610794423509825   0.388894341489066   0.625548356082402   1.0000000
N2   N   0.777478848814117   0.888997598769539   0.625192303208050   1.0000000
N2   N   0.944128402029541   0.388898877646540   0.625103935363153   1.0000000
N2   N   0.110766310869066   0.388884104875281   0.124920898628664   1.0000000
N2   N   0.277430913064864   0.888912694452061   0.124815554879213   1.0000000
N2   N   0.610785682349580   0.888949003777734   0.124914876713570   1.0000000
N2   N   0.444069113512423   0.388907897512851   0.124506627662081   1.0000000
N2   N   0.944112436991739   0.888947582703188   0.124943685955216   1.0000000
N2   N   0.777467140445964   0.388905358253456   0.124699084999182   1.0000000
N2   N   0.277423341225800   0.555557706089044   0.625159668186039   1.0000000
N2   N   0.110785517537788   0.055578086221452   0.624973518113783   1.0000000
N2   N   0.610745292363579   0.555633438888657   0.625597097801121   1.0000000
N2   N   0.444124639420300   0.055590193044235   0.625081860486706   1.0000000
N2   N   0.944098463648144   0.555564838960646   0.625261140985073   1.0000000
N2   N   0.110761291466659   0.555561056220153   0.124875264103009   1.0000000
N2   N   0.777481234939516   0.055608169017808   0.624992957560660   1.0000000
N2   N   0.277453172170467   0.055583544907028   0.124894367406471   1.0000000
N2   N   0.444089854877105   0.555573674629692   0.124938314951001   1.0000000
N2   N   0.777441832530545   0.555543930890853   0.124152974332066   1.0000000
N2   N   0.610801508638883   0.055582495721461   0.125026561310576   1.0000000
N2   N   0.444089854877105   0.555573674629698   0.625061685048976   1.0000000
N2   N   0.944143859410127   0.055598657369119   0.125022038414555   1.0000000
N2   N   0.277420021250265   0.722226230192522   0.625200837024879   1.0000000
N2   N   0.110763865455468   0.222226937573120   0.625154396821534   1.0000000
N2   N   0.444141862833878   0.222273261033750   0.625210489593977   1.0000000
N2   N   0.610782691719051   0.722296021231607   0.625162669280118   1.0000000
N2   N   0.944061175173569   0.722237146158057   0.625139948170762   1.0000000
N2   N   0.777479848544652   0.222250571550300   0.625024202182438   1.0000000
N2   N   0.110733468248480   0.722224639506789   0.124865120843284   1.0000000
N2   N   0.444094375710560   0.722238663921978   0.124826565723481   1.0000000
N2   N   0.277444675075550   0.222259608041382   0.124861379843838   1.0000000
N2   N   0.777445327644956   0.722353708498672   0.124364851221113   1.0000000
N2   N   0.610816078742804   0.222248007413842   0.124786463000811   1.0000000
N2   N   0.944131203426273   0.222251878991337   0.124984596618381   1.0000000
N2   N   0.110766310869066   0.388884104875281   0.625079101371399   1.0000000
N2   N   0.277430913064864   0.888912694452061   0.625184445120818   1.0000000
N2   N   0.610785682349580   0.888949003777734   0.625085123286447   1.0000000
N2   N   0.444069113512423   0.388907897512851   0.625493372337921   1.0000000
N2   N   0.944112436991739   0.888947582703188   0.625056314044774   1.0000000
N2   N   0.110756606124558   0.888907717605470   0.124948380152182   1.0000000
N2   N   0.777467140445964   0.388905358253456   0.625300915000855   1.0000000
N2   N   0.444103678364738   0.888921708030799   0.124876874583994   1.0000000
N2   N   0.277410286805156   0.388867081201915   0.124816738901767   1.0000000
N2   N   0.277423341225800   0.555557706089044   0.124840331813949   1.0000000
N2   N   0.610794423509825   0.388894341489066   0.124451643917656   1.0000000
N2   N   0.777478848814117   0.888997598769539   0.124807696791966   1.0000000
N2   N   0.944128402029541   0.388898877646531   0.124896064636863   1.0000000
N2   N   0.110761291466659   0.555561056220153   0.625124735896998   1.0000000
N2   N   0.277453172170467   0.055583544907028   0.625105632593544   1.0000000
N2   N   0.777441832530545   0.555543930890853   0.625847025667893   1.0000000
N2   N   0.610801508638883   0.055582495721461   0.624973438689408   1.0000000
N2   N   0.944143859410127   0.055598657369119   0.624977961585423   1.0000000
N2   N   0.056087733815696   0.111377577727458   0.375000000000000   1.0000000
N2   N   0.555789218822288   0.610517087629453   0.375000000000000   1.0000000
N2   N   0.389206899452698   0.112214481624553   0.375000000000000   1.0000000
N2   N   0.889792849855777   0.610880834648066   0.375000000000000   1.0000000
N2   N   0.722339803498992   0.110932060832791   0.375000000000000   1.0000000
N2   N   0.055941574682162   0.777614195833821   0.875000000000000   1.0000000
N2   N   0.389269155952915   0.777648063026712   0.875000000000000   1.0000000
N2   N   0.222651375759607   0.277664888264921   0.875000000000000   1.0000000
N2   N   0.722607027848593   0.777657226969279   0.875000000000000   1.0000000
N2   N   0.555957130507721   0.277667130867089   0.875000000000000   1.0000000
N2   N   0.889294244011941   0.277648214789588   0.875000000000000   1.0000000
N2   N   0.222768991233456   0.778002734262269   0.375000000000000   1.0000000
N2   N   0.055972029583680   0.277908233475332   0.375000000000000   1.0000000
N2   N   0.389889670192551   0.280808219880012   0.375000000000000   1.0000000
N2   N   0.555555857012594   0.777358813128976   0.375000000000000   1.0000000
N2   N   0.889895697135012   0.778838686263013   0.375000000000000   1.0000000
N2   N   0.722525803921311   0.276767676715451   0.375000000000000   1.0000000
N2   N   0.055954049555173   0.944315091080062   0.875000000000000   1.0000000
N2   N   0.389270647574198   0.944336145482510   0.875000000000000   1.0000000
N2   N   0.222630685501031   0.444309956708660   0.875000000000000   1.0000000
N2   N   0.555960542424262   0.444329814290607   0.875000000000000   1.0000000
N2   N   0.722621231903510   0.944347572806054   0.875000000000000   1.0000000
N2   N   0.889287982214755   0.444297367288509   0.875000000000000   1.0000000
N2   N   0.056333031276241   0.444552131582581   0.375000000000000   1.0000000
N2   N   0.222822590383930   0.944836385358565   0.375000000000000   1.0000000
N2   N   0.555595269645655   0.944165222359734   0.375000000000000   1.0000000
N2   N   0.388368125677535   0.442531836597481   0.375000000000000   1.0000000
N2   N   0.889538311797634   0.945121649690798   0.375000000000000   1.0000000
N2   N   0.723012494496265   0.442217257252316   0.375000000000000   1.0000000
N2   N   0.222619683369170   0.610981240476735   0.875000000000000   1.0000000
N2   N   0.055971282260026   0.110959559410868   0.875000000000000   1.0000000
N2   N   0.555953937803543   0.611020811458795   0.875000000000000   1.0000000
N2   N   0.389283162185554   0.110974671378371   0.875000000000000   1.0000000
N2   N   0.889288818628971   0.610984908754389   0.875000000000000   1.0000000
N2   N   0.056426545911197   0.611291971674508   0.375000000000000   1.0000000
N2   N   0.722614944748009   0.110974772185409   0.875000000000000   1.0000000
N2   N   0.223443188210032   0.112133179260745   0.375000000000000   1.0000000
N2   N   0.389391165513421   0.610357090947727   0.375000000000000   1.0000000
N2   N   0.555592474270398   0.110639199134685   0.375000000000000   1.0000000
N2   N   0.389289401400203   0.611012595053909   0.875000000000000   1.0000000
N2   N   0.889297788674527   0.111320314042909   0.375000000000000   1.0000000
N2   N   0.222607379000055   0.777627897402194   0.875000000000000   1.0000000
N2   N   0.055968427771986   0.277652604311451   0.875000000000000   1.0000000
N2   N   0.389307428963338   0.277681295302592   0.875000000000000   1.0000000
N2   N   0.555941067488765   0.777674846272320   0.875000000000000   1.0000000
N2   N   0.889282410637201   0.777637264162111   0.875000000000000   1.0000000
N2   N   0.722611216312999   0.277665036379381   0.875000000000000   1.0000000
N2   N   0.056125889816908   0.778016476441554   0.375000000000000   1.0000000
N2   N   0.389211254108177   0.777626358568682   0.375000000000000   1.0000000
N2   N   0.222089766296667   0.277710659745363   0.375000000000000   1.0000000
N2   N   0.722596108877509   0.780215200122252   0.375000000000000   1.0000000
N2   N   0.555917621314881   0.277040186452565   0.375000000000000   1.0000000
N2   N   0.889370500268617   0.277686182350697   0.375000000000000   1.0000000
N2   N   0.055948840904360   0.444285293210152   0.875000000000000   1.0000000
N2   N   0.222617914068552   0.944316179957791   0.875000000000000   1.0000000
N2   N   0.555946547688544   0.944347667403999   0.875000000000000   1.0000000
N2   N   0.389302768138856   0.444331533292436   0.875000000000000   1.0000000
N2   N   0.889304771907688   0.944325048508105   0.875000000000000   1.0000000
N2   N   0.056623122881652   0.945228389629344   0.375000000000000   1.0000000
N2   N   0.722623179680229   0.444313983978879   0.875000000000000   1.0000000
N2   N   0.389181538343931   0.944764616572766   0.375000000000000   1.0000000
N2   N   0.222851847969124   0.444613993744815   0.375000000000000   1.0000000
N2   N   0.222893588801452   0.611219149165335   0.375000000000000   1.0000000
N2   N   0.722335952637872   0.945178680206724   0.375000000000000   1.0000000
N2   N   0.889803807601884   0.444180755487233   0.375000000000000   1.0000000
N2   N   0.055941008893482   0.610972470761125   0.875000000000000   1.0000000
N2   N   0.222633823858595   0.110975751832011   0.875000000000000   1.0000000
N2   N   0.722614963680228   0.611008280421954   0.875000000000000   1.0000000
N2   N   0.555942033400492   0.110980673172111   0.875000000000000   1.0000000
N2   N   0.889304230632880   0.110971803279564   0.875000000000000   1.0000000
B2   B   0.112106639851727   0.056181748161375   0.375000000000000   1.0000000
B2   B   0.444588506068262   0.056189061812324   0.375000000000000   1.0000000
B2   B   0.944848974891700   0.555847782790726   0.375000000000000   1.0000000
B2   B   0.778019609049398   0.055751911936583   0.375000000000000   1.0000000
B2   B   0.111449983097658   0.722042334476183   0.875000000000000   1.0000000
B2   B   0.444833754210084   0.722086675573837   0.875000000000000   1.0000000
B2   B   0.278314588259443   0.222259711134056   0.875000000000000   1.0000000
B2   B   0.778105662995889   0.722026375061591   0.875000000000000   1.0000000
B2   B   0.611572045839822   0.222264843740537   0.875000000000000   1.0000000
B2   B   0.944929892000002   0.222217193800830   0.875000000000000   1.0000000
B2   B   0.278174548671228   0.722313512558124   0.375000000000000   1.0000000
B2   B   0.111499463010790   0.222351116947144   0.375000000000000   1.0000000
B2   B   0.445318287133255   0.224223210016499   0.375000000000000   1.0000000
B2   B   0.612022419338055   0.721964065244186   0.375000000000000   1.0000000
B2   B   0.944018496561667   0.721870370578091   0.375000000000000   1.0000000
B2   B   0.778096862389586   0.221951417587713   0.375000000000000   1.0000000
B2   B   0.111537442036565   0.888808808640795   0.875000000000000   1.0000000
B2   B   0.444897453491450   0.888867992461566   0.875000000000000   1.0000000
B2   B   0.278268970194891   0.388752902969255   0.875000000000000   1.0000000
B2   B   0.611549572834185   0.388791551299978   0.875000000000000   1.0000000
B2   B   0.778218161211743   0.888814630208484   0.875000000000000   1.0000000
B2   B   0.944848075237733   0.388734170797894   0.875000000000000   1.0000000
B2   B   0.111794916638383   0.389030395908711   0.375000000000000   1.0000000
B2   B   0.278154172044683   0.889165353338677   0.375000000000000   1.0000000
B2   B   0.611235759769565   0.888539958113168   0.375000000000000   1.0000000
B2   B   0.945030190426289   0.889005246221106   0.375000000000000   1.0000000
B2   B   0.778322579025680   0.387985393358579   0.375000000000000   1.0000000
B2   B   0.278270881907789   0.555554951065452   0.875000000000000   1.0000000
B2   B   0.111499792749079   0.055385462341692   0.875000000000000   1.0000000
B2   B   0.611602569021190   0.555563655781531   0.875000000000000   1.0000000
B2   B   0.444813066416261   0.055430031378704   0.875000000000000   1.0000000
B2   B   0.944868093259438   0.555548427470591   0.875000000000000   1.0000000
B2   B   0.111717470429805   0.555760235880572   0.375000000000000   1.0000000
B2   B   0.778160228705699   0.055401830292074   0.875000000000000   1.0000000
B2   B   0.278395838593072   0.056077138125436   0.375000000000000   1.0000000
B2   B   0.444970676738288   0.554330372936740   0.375000000000000   1.0000000
B2   B   0.776841077486278   0.553872823420746   0.375000000000000   1.0000000
B2   B   0.611184461447060   0.055284115313886   0.375000000000000   1.0000000
B2   B   0.444949284136405   0.555533431469588   0.875000000000000   1.0000000
B2   B   0.944892335915707   0.055648569608662   0.375000000000000   1.0000000
B2   B   0.278202281734662   0.722057355302636   0.875000000000000   1.0000000
B2   B   0.111612856345881   0.222182867470688   0.875000000000000   1.0000000
B2   B   0.444935025586822   0.222236347510981   0.875000000000000   1.0000000
B2   B   0.611539850085834   0.722063816706037   0.875000000000000   1.0000000
B2   B   0.944809128365463   0.722027247222011   0.875000000000000   1.0000000
B2   B   0.778220199912234   0.222199479718799   0.875000000000000   1.0000000
B2   B   0.111397744729141   0.722390556168825   0.375000000000000   1.0000000
B2   B   0.444804088223276   0.721740656857239   0.375000000000000   1.0000000
B2   B   0.279004688454335   0.223566546604400   0.375000000000000   1.0000000
B2   B   0.777140244900069   0.722780231189739   0.375000000000000   1.0000000
B2   B   0.611256607816274   0.221931344406061   0.375000000000000   1.0000000
B2   B   0.944909791274561   0.222336716104951   0.375000000000000   1.0000000
B2   B   0.111494976983146   0.388730218208502   0.875000000000000   1.0000000
B2   B   0.278236037858191   0.888881636830397   0.875000000000000   1.0000000
B2   B   0.611583651787474   0.888903709288676   0.875000000000000   1.0000000
B2   B   0.444898703487290   0.388792700115163   0.875000000000000   1.0000000
B2   B   0.944878669313399   0.888825079705200   0.875000000000000   1.0000000
B2   B   0.111525525910880   0.889030660276086   0.375000000000000   1.0000000
B2   B   0.778126990172777   0.388775396442467   0.875000000000000   1.0000000
B2   B   0.444632626675528   0.888923465284548   0.375000000000000   1.0000000
B2   B   0.278114898625616   0.388661613976781   0.375000000000000   1.0000000
B2   B   0.278451219850396   0.555608594615800   0.375000000000000   1.0000000
B2   B   0.612186297889400   0.388875012531294   0.375000000000000   1.0000000
B2   B   0.778016424907816   0.889757694539212   0.375000000000000   1.0000000
B2   B   0.945053312686492   0.388922322716488   0.375000000000000   1.0000000
B2   B   0.111547690822355   0.555500698165434   0.875000000000000   1.0000000
B2   B   0.278214607225199   0.055410719308875   0.875000000000000   1.0000000
B2   B   0.778188988002696   0.555526044357473   0.875000000000000   1.0000000
B2   B   0.611528550418279   0.055419452963970   0.875000000000000   1.0000000
B2   B   0.944889366361978   0.055369361026866   0.875000000000000   1.0000000
B2   B   0.055176883247719   0.111034098321510   0.125074960058386   1.0000000
B2   B   0.555401033853053   0.611082538942099   0.125196778598216   1.0000000
B2   B   0.388588803282949   0.111195761350175   0.124996638684577   1.0000000
B2   B   0.888306505955724   0.611065358958021   0.125056505928277   1.0000000
B2   B   0.721885699361816   0.111081505310746   0.125113735531427   1.0000000
B2   B   0.054978227526197   0.777636733546911   0.624893227133386   1.0000000
B2   B   0.388520609126791   0.777688986661307   0.625111840849543   1.0000000
B2   B   0.221963312286971   0.277831307055055   0.625058580380676   1.0000000
B2   B   0.721884629858090   0.777639483553775   0.624925001648226   1.0000000
B2   B   0.555365467234976   0.278055103885801   0.625043451172529   1.0000000
B2   B   0.888584607707656   0.277833843022865   0.624939471526299   1.0000000
B2   B   0.221771013952230   0.777710401724151   0.124916216066200   1.0000000
B2   B   0.055222996951086   0.277792557848374   0.124999646146102   1.0000000
B2   B   0.388693092073120   0.278022196881174   0.125043245065928   1.0000000
B2   B   0.555264284221259   0.777687142262451   0.125018446770870   1.0000000
B2   B   0.888302855236634   0.777626600161135   0.125198440060153   1.0000000
B2   B   0.721904729968007   0.277920851511527   0.124997800029074   1.0000000
B2   B   0.055117810286920   0.944434145455976   0.624854874971208   1.0000000
B2   B   0.388548561257157   0.944531078568251   0.625058655914846   1.0000000
B2   B   0.221890119658992   0.444366688387989   0.625029433468611   1.0000000
B2   B   0.555303186885808   0.444603437415902   0.624187301787324   1.0000000
B2   B   0.721919133973806   0.944461401330427   0.624949183160018   1.0000000
B2   B   0.888454822483214   0.444436018148460   0.625025284854411   1.0000000
B2   B   0.055150718904506   0.444362174506295   0.124997664014338   1.0000000
B2   B   0.221859610699098   0.944493403150740   0.124983748042678   1.0000000
B2   B   0.555285584778318   0.944498811293762   0.125025727235118   1.0000000
B2   B   0.388638759540246   0.444366967649586   0.125070832402051   1.0000000
B2   B   0.888537035943472   0.944431542184882   0.125117941877515   1.0000000
B2   B   0.721813356340923   0.444543241566514   0.124936439374851   1.0000000
B2   B   0.221880906597118   0.611104122622428   0.625091494188073   1.0000000
B2   B   0.055176883247718   0.111034098321510   0.624925039941636   1.0000000
B2   B   0.555401033853053   0.611082538942099   0.624803221401703   1.0000000
B2   B   0.388588803282949   0.111195761350175   0.625003361315403   1.0000000
B2   B   0.888306505955724   0.611065358958021   0.624943494071709   1.0000000
B2   B   0.055069313694797   0.611102337486611   0.124984570964594   1.0000000
B2   B   0.721885699361816   0.111081505310745   0.624886264468537   1.0000000
B2   B   0.221892125833857   0.111133235052929   0.125051195066560   1.0000000
B2   B   0.388610181464778   0.611086869300309   0.124976117938209   1.0000000
B2   B   0.721790853537900   0.611126163994200   0.126124780074939   1.0000000
B2   B   0.555257391921244   0.111181383345818   0.125035968353478   1.0000000
B2   B   0.388610181464778   0.611086869300309   0.625023882061791   1.0000000
B2   B   0.888543855610035   0.111060281092487   0.125117029684443   1.0000000
B2   B   0.221771013952230   0.777710401724151   0.625083783933828   1.0000000
B2   B   0.055222996951086   0.277792557848374   0.625000353853862   1.0000000
B2   B   0.388693092073120   0.278022196881174   0.624956754934138   1.0000000
B2   B   0.555264284221259   0.777687142262451   0.624981553229122   1.0000000
B2   B   0.888302855236634   0.777626600161135   0.624801559939842   1.0000000
B2   B   0.721904729968007   0.277920851511527   0.625002199970892   1.0000000
B2   B   0.054978227526197   0.777636733546911   0.125106772866615   1.0000000
B2   B   0.388520609126791   0.777688986661307   0.124888159150433   1.0000000
B2   B   0.221963312286971   0.277831307055055   0.124941419619350   1.0000000
B2   B   0.721884629858090   0.777639483553775   0.125074998351779   1.0000000
B2   B   0.555365467234976   0.278055103885801   0.124956548827451   1.0000000
B2   B   0.888584607707656   0.277833843022865   0.125060528473753   1.0000000
B2   B   0.055150718904506   0.444362174506295   0.625002335985695   1.0000000
B2   B   0.221859610699098   0.944493403150740   0.625016251957249   1.0000000
B2   B   0.555285584778318   0.944498811293762   0.624974272764924   1.0000000
B2   B   0.388638759540246   0.444366967649586   0.624929167597963   1.0000000
B2   B   0.888537035943472   0.944431542184882   0.624882058122458   1.0000000
B2   B   0.055117810286920   0.944434145455976   0.125145125028761   1.0000000
B2   B   0.721813356340923   0.444543241566514   0.625063560625122   1.0000000
B2   B   0.388548561257157   0.944531078568251   0.124941344085166   1.0000000
B2   B   0.221890119658992   0.444366688387989   0.124970566531352   1.0000000
B2   B   0.221880906597118   0.611104122622428   0.124908505811941   1.0000000
B2   B   0.555303186885808   0.444603437415902   0.125812698212684   1.0000000
B2   B   0.721919133973806   0.944461401330427   0.125050816839974   1.0000000
B2   B   0.888454822483214   0.444436018148460   0.124974715145607   1.0000000
B2   B   0.055069313694795   0.611102337486611   0.625015429035349   1.0000000
B2   B   0.221892125833857   0.111133235052929   0.624948804933426   1.0000000
B2   B   0.721790853537900   0.611126163994200   0.623875219925049   1.0000000
B2   B   0.555257391921244   0.111181383345818   0.624964031646501   1.0000000
B2   B   0.888543855610035   0.111060281092487   0.624882970315499   1.0000000


