data_1
_audit_creation_method   'vasp2cif'
_cell_length_a    14.93631414619966
_cell_length_b    14.936314146199727
_cell_length_c    13.341276283792837
_cell_angle_alpha    90.0
_cell_angle_beta    90.0
_cell_angle_gamma    119.99999999999984

_symmetry_space_group_name_H-M    'P 1'
loop_
_atom_site_label
_atom_site_type_symbol
_atom_site_fract_x
_atom_site_fract_y
_atom_site_fract_z
_atom_site_occupancy
Si2   Si   0.555555555555557   0.444444444444443   0.375000000000000   1.0000000
N2   N   0.111089053051234   0.055542218705700   0.125205416862727   1.0000000
N2   N   0.611147059163907   0.555627451660875   0.126802754459700   1.0000000
N2   N   0.444441256254532   0.055553817573435   0.125437145137877   1.0000000
N2   N   0.944446182426587   0.555558743745466   0.125437145137877   1.0000000
N2   N   0.777785928123768   0.055559630728535   0.125073395574544   1.0000000
N2   N   0.111111493813744   0.722222413573600   0.624520853143398   1.0000000
N2   N   0.444441256254532   0.722220772014437   0.624562854862121   1.0000000
N2   N   0.277732565704849   0.222181928723201   0.624775287721167   1.0000000
N2   N   0.777818071276724   0.722267434295124   0.624775287721167   1.0000000
N2   N   0.611116029685128   0.222181928723201   0.624775287721167   1.0000000
N2   N   0.944440369271336   0.222214071876244   0.624926604425644   1.0000000
N2   N   0.277777586426434   0.722222413573600   0.125479146856585   1.0000000
N2   N   0.111097214418619   0.222215273875964   0.125110453700620   1.0000000
N2   N   0.444461463142194   0.222256259617818   0.125800446174510   1.0000000
N2   N   0.611116029685128   0.722267434295124   0.125224712278762   1.0000000
N2   N   0.944446182426587   0.722220772014437   0.125437145137877   1.0000000
N2   N   0.777784726123936   0.222215273875964   0.125110453700620   1.0000000
N2   N   0.111111242993704   0.888888757006211   0.624470740912825   1.0000000
N2   N   0.444444180679285   0.888888757006211   0.624470740912825   1.0000000
N2   N   0.277732565704849   0.388883970314986   0.624775287721153   1.0000000
N2   N   0.611147059163907   0.388852940836227   0.623197245540303   1.0000000
N2   N   0.777784726123936   0.888902785581455   0.624889546299360   1.0000000
N2   N   0.944457781294343   0.388880167678807   0.624794583137318   1.0000000
N2   N   0.111089053051234   0.388880167678807   0.125205416862727   1.0000000
N2   N   0.277777586426434   0.888888506186196   0.125479146856585   1.0000000
N2   N   0.611119832321004   0.888910946948619   0.125205416862727   1.0000000
N2   N   0.444372548339100   0.388852940836227   0.126802754459700   1.0000000
N2   N   0.944457781294343   0.888910946948619   0.125205416862727   1.0000000
N2   N   0.777818071276724   0.388883970314986   0.125224712278762   1.0000000
N2   N   0.277779227985489   0.555558743745466   0.624562854862121   1.0000000
N2   N   0.111089053051234   0.055542218705700   0.624794583137318   1.0000000
N2   N   0.611147059163907   0.555627451660875   0.623197245540303   1.0000000
N2   N   0.444441256254532   0.055553817573435   0.624562854862121   1.0000000
N2   N   0.944446182426587   0.555558743745466   0.624562854862121   1.0000000
N2   N   0.111111242993704   0.555555819320649   0.125529259087169   1.0000000
N2   N   0.777785928123768   0.055559630728535   0.624926604425644   1.0000000
N2   N   0.277779227985489   0.055553817573435   0.125437145137877   1.0000000
N2   N   0.444461463142194   0.555538536857724   0.125800446174510   1.0000000
N2   N   0.777743740382277   0.555538536857724   0.125800446174510   1.0000000
N2   N   0.611119832321004   0.055542218705700   0.125205416862727   1.0000000
N2   N   0.444461463142194   0.555538536857724   0.624199553825490   1.0000000
N2   N   0.944440369271336   0.055559630728535   0.125073395574544   1.0000000
N2   N   0.277777586426434   0.722222413573600   0.624520853143398   1.0000000
N2   N   0.111097214418619   0.222215273875964   0.624889546299360   1.0000000
N2   N   0.444461463142194   0.222256259617818   0.624199553825490   1.0000000
N2   N   0.611116029685128   0.722267434295124   0.624775287721153   1.0000000
N2   N   0.944446182426587   0.722220772014437   0.624562854862121   1.0000000
N2   N   0.777784726123936   0.222215273875964   0.624889546299360   1.0000000
N2   N   0.111111493813744   0.722222413573600   0.125479146856585   1.0000000
N2   N   0.444441256254532   0.722220772014437   0.125437145137877   1.0000000
N2   N   0.277732565704856   0.222181928723201   0.125224712278762   1.0000000
N2   N   0.777818071276724   0.722267434295124   0.125224712278762   1.0000000
N2   N   0.611116029685128   0.222181928723201   0.125224712278762   1.0000000
N2   N   0.944440369271336   0.222214071876244   0.125073395574544   1.0000000
N2   N   0.111089053051234   0.388880167678807   0.624794583137318   1.0000000
N2   N   0.277777586426434   0.888888506186196   0.624520853143398   1.0000000
N2   N   0.611119832321004   0.888910946948619   0.624794583137318   1.0000000
N2   N   0.444372548339100   0.388852940836227   0.623197245540303   1.0000000
N2   N   0.944457781294343   0.888910946948619   0.624794583137318   1.0000000
N2   N   0.111111242993704   0.888888757006211   0.125529259087169   1.0000000
N2   N   0.777818071276724   0.388883970314986   0.624775287721167   1.0000000
N2   N   0.444444180679285   0.888888757006211   0.125529259087169   1.0000000
N2   N   0.277732565704856   0.388883970314986   0.125224712278762   1.0000000
N2   N   0.277779227985489   0.555558743745466   0.125437145137877   1.0000000
N2   N   0.611147059163907   0.388852940836227   0.126802754459700   1.0000000
N2   N   0.777784726123936   0.888902785581455   0.125110453700620   1.0000000
N2   N   0.944457781294343   0.388880167678807   0.125205416862727   1.0000000
N2   N   0.111111242993704   0.555555819320649   0.624470740912825   1.0000000
N2   N   0.277779227985489   0.055553817573435   0.624562854862121   1.0000000
N2   N   0.777743740382277   0.555538536857724   0.624199553825490   1.0000000
N2   N   0.611119832321004   0.055542218705700   0.624794583137318   1.0000000
N2   N   0.944440369271336   0.055559630728535   0.624926604425644   1.0000000
N2   N   0.054387698781085   0.110334281503189   0.375000000000000   1.0000000
N2   N   0.556355031084049   0.620709988616662   0.375000000000000   1.0000000
N2   N   0.387814282639359   0.108961898612066   0.375000000000000   1.0000000
N2   N   0.891038101387933   0.612185717360584   0.375000000000000   1.0000000
N2   N   0.722613249388719   0.110334281503189   0.375000000000000   1.0000000
N2   N   0.055553314858711   0.777779917176556   0.875000000000000   1.0000000
N2   N   0.388893268984568   0.777779917176556   0.875000000000000   1.0000000
N2   N   0.222230233734473   0.277781783533913   0.875000000000000   1.0000000
N2   N   0.722218216466010   0.777769766265509   0.875000000000000   1.0000000
N2   N   0.555544783790224   0.277777800572407   0.875000000000000   1.0000000
N2   N   0.888885756942788   0.277779177820479   0.875000000000000   1.0000000
N2   N   0.222222222222221   0.777777777777779   0.375000000000000   1.0000000
N2   N   0.054387698781085   0.277386750611222   0.375000000000000   1.0000000
N2   N   0.379290011383238   0.268978375800623   0.375000000000000   1.0000000
N2   N   0.555265307238298   0.781570061671694   0.375000000000000   1.0000000
N2   N   0.892971421100124   0.781570061671793   0.375000000000000   1.0000000
N2   N   0.724100895007748   0.275899104992302   0.375000000000000   1.0000000
N2   N   0.055558120784314   0.944441879215663   0.875000000000000   1.0000000
N2   N   0.388893268984568   0.944446685141195   0.875000000000000   1.0000000
N2   N   0.222224990818453   0.444444722126266   0.875000000000000   1.0000000
N2   N   0.555555555555557   0.444444444444443   0.875000000000000   1.0000000
N2   N   0.722220822179472   0.944439912455582   0.875000000000000   1.0000000
N2   N   0.888886397974494   0.444444722126266   0.875000000000000   1.0000000
N2   N   0.055717490329115   0.444768313991573   0.375000000000000   1.0000000
N2   N   0.221875221880867   0.943516413551963   0.375000000000000   1.0000000
N2   N   0.555231686008552   0.944282509670828   0.375000000000000   1.0000000
N2   N   0.379290011383238   0.443644968915916   0.375000000000000   1.0000000
N2   N   0.889665718496958   0.945612301218844   0.375000000000000   1.0000000
N2   N   0.731021624199129   0.443644968915916   0.375000000000000   1.0000000
N2   N   0.222220082823406   0.611106731015333   0.875000000000000   1.0000000
N2   N   0.055560087544334   0.111114243057156   0.875000000000000   1.0000000
N2   N   0.555544783790224   0.611100316551026   0.875000000000000   1.0000000
N2   N   0.388893464080588   0.111120261494638   0.875000000000000   1.0000000
N2   N   0.888879738505474   0.611106535919256   0.875000000000000   1.0000000
N2   N   0.056483586447978   0.611692141662248   0.375000000000000   1.0000000
N2   N   0.722220822179472   0.111114243057156   0.875000000000000   1.0000000
N2   N   0.218429938328241   0.107028578899824   0.375000000000000   1.0000000
N2   N   0.387814282639359   0.612185717360584   0.375000000000000   1.0000000
N2   N   0.731021624199129   0.620709988616662   0.375000000000000   1.0000000
N2   N   0.555265307238298   0.107028578899824   0.375000000000000   1.0000000
N2   N   0.388893464080588   0.611106535919256   0.875000000000000   1.0000000
N2   N   0.888888888888886   0.111111111111114   0.375000000000000   1.0000000
N2   N   0.222222222222221   0.777777777777779   0.875000000000000   1.0000000
N2   N   0.055560087544334   0.277779177820479   0.875000000000000   1.0000000
N2   N   0.388899683448768   0.277777800572407   0.875000000000000   1.0000000
N2   N   0.555555277873658   0.777775009181588   0.875000000000000   1.0000000
N2   N   0.888886397974494   0.777775009181588   0.875000000000000   1.0000000
N2   N   0.722218216466010   0.277781783533913   0.875000000000000   1.0000000
N2   N   0.056483586447971   0.778124778119196   0.375000000000000   1.0000000
N2   N   0.388307858337869   0.778124778119196   0.375000000000000   1.0000000
N2   N   0.218464876651239   0.275899104992302   0.375000000000000   1.0000000
N2   N   0.724100895007748   0.781535123348725   0.375000000000000   1.0000000
N2   N   0.556355031084049   0.268978375800623   0.375000000000000   1.0000000
N2   N   0.889665718496958   0.277386750611222   0.375000000000000   1.0000000
N2   N   0.055558120784314   0.444449574901957   0.875000000000000   1.0000000
N2   N   0.222220082823406   0.944446685141195   0.875000000000000   1.0000000
N2   N   0.555550425098012   0.944441879215663   0.875000000000000   1.0000000
N2   N   0.388899683448768   0.444455216209704   0.875000000000000   1.0000000
N2   N   0.888885756942788   0.944439912455582   0.875000000000000   1.0000000
N2   N   0.055717490329122   0.944282509670828   0.375000000000000   1.0000000
N2   N   0.722222199427610   0.444455216209704   0.875000000000000   1.0000000
N2   N   0.388307858337869   0.943516413551963   0.375000000000000   1.0000000
N2   N   0.218429938328241   0.444734692761674   0.375000000000000   1.0000000
N2   N   0.221875221880867   0.611692141662248   0.375000000000000   1.0000000
N2   N   0.722613249388719   0.945612301218844   0.375000000000000   1.0000000
N2   N   0.892971421100124   0.444734692761674   0.375000000000000   1.0000000
N2   N   0.055553314858711   0.611106731015333   0.875000000000000   1.0000000
N2   N   0.222224990818453   0.111113602025453   0.875000000000000   1.0000000
N2   N   0.722222199427610   0.611100316551026   0.875000000000000   1.0000000
N2   N   0.555555277873658   0.111113602025453   0.875000000000000   1.0000000
N2   N   0.888888888888886   0.111111111111114   0.875000000000000   1.0000000
B2   B   0.108747395638379   0.053778821459478   0.375000000000000   1.0000000
B2   B   0.624523348000774   0.582380029334369   0.375000000000000   1.0000000
B2   B   0.443864247130686   0.053674921643997   0.375000000000000   1.0000000
B2   B   0.946325078355910   0.556135752869198   0.375000000000000   1.0000000
B2   B   0.778279650728978   0.055806492031111   0.375000000000000   1.0000000
B2   B   0.111104272236275   0.722218802784753   0.875000000000000   1.0000000
B2   B   0.444430602090779   0.722231558203120   0.875000000000000   1.0000000
B2   B   0.277749191439893   0.222206365839933   0.875000000000000   1.0000000
B2   B   0.777793634160023   0.722250808560072   0.875000000000000   1.0000000
B2   B   0.611123841066699   0.222206365839933   0.875000000000000   1.0000000
B2   B   0.944445688848661   0.222224711030655   0.875000000000000   1.0000000
B2   B   0.277529958592000   0.722470041408169   0.375000000000000   1.0000000
B2   B   0.108352786305315   0.220843059819372   0.375000000000000   1.0000000
B2   B   0.442803288018045   0.218939909369540   0.375000000000000   1.0000000
B2   B   0.612726868681477   0.730193233035601   0.375000000000000   1.0000000
B2   B   0.946325078355910   0.723522658820096   0.375000000000000   1.0000000
B2   B   0.779156940180785   0.220843059819372   0.375000000000000   1.0000000
B2   B   0.111110164660896   0.888889835339122   0.875000000000000   1.0000000
B2   B   0.444446337344858   0.888889835339122   0.875000000000000   1.0000000
B2   B   0.277749191439893   0.388876158933295   0.875000000000000   1.0000000
B2   B   0.611137007025452   0.388862992974527   0.875000000000000   1.0000000
B2   B   0.777789688973208   0.888912711279769   0.875000000000000   1.0000000
B2   B   0.944458886649055   0.388876865739468   0.875000000000000   1.0000000
B2   B   0.108747395638379   0.388301907512228   0.375000000000000   1.0000000
B2   B   0.277529958592000   0.888393250517321   0.375000000000000   1.0000000
B2   B   0.611698092487567   0.891252604361608   0.375000000000000   1.0000000
B2   B   0.417619970665405   0.375476651999480   0.375000000000000   1.0000000
B2   B   0.946221178540469   0.891252604361608   0.375000000000000   1.0000000
B2   B   0.784133031020924   0.387273131318579   0.375000000000000   1.0000000
B2   B   0.277768441796964   0.555569397909300   0.875000000000000   1.0000000
B2   B   0.111084645756940   0.055541113350859   0.875000000000000   1.0000000
B2   B   0.611137007025452   0.555607347384275   0.875000000000000   1.0000000
B2   B   0.444430602090779   0.055532377221107   0.875000000000000   1.0000000
B2   B   0.944467622778830   0.555569397909300   0.875000000000000   1.0000000
B2   B   0.111252543669512   0.555838420672181   0.375000000000000   1.0000000
B2   B   0.777775288969285   0.055554311151341   0.875000000000000   1.0000000
B2   B   0.276477341179949   0.053674921643997   0.375000000000000   1.0000000
B2   B   0.442803288018045   0.557196711981968   0.375000000000000   1.0000000
B2   B   0.781060090630574   0.557196711981968   0.375000000000000   1.0000000
B2   B   0.611698092487567   0.053778821459478   0.375000000000000   1.0000000
B2   B   0.444429923181525   0.555570076818345   0.875000000000000   1.0000000
B2   B   0.944193507968875   0.055806492031111   0.375000000000000   1.0000000
B2   B   0.277781197215222   0.722218802784753   0.875000000000000   1.0000000
B2   B   0.111087288720167   0.222210311026766   0.875000000000000   1.0000000
B2   B   0.444429923181525   0.222193179696415   0.875000000000000   1.0000000
B2   B   0.611123841066699   0.722250808560072   0.875000000000000   1.0000000
B2   B   0.944467622778830   0.722231558203120   0.875000000000000   1.0000000
B2   B   0.777789688973208   0.222210311026766   0.875000000000000   1.0000000
B2   B   0.111606749482811   0.722470041408169   0.375000000000000   1.0000000
B2   B   0.443864247130686   0.723522658820096   0.375000000000000   1.0000000
B2   B   0.269806766964218   0.215866968979093   0.375000000000000   1.0000000
B2   B   0.784133031020924   0.730193233035601   0.375000000000000   1.0000000
B2   B   0.612726868681477   0.215866968979093   0.375000000000000   1.0000000
B2   B   0.944193507968875   0.221720349271092   0.375000000000000   1.0000000
B2   B   0.111084645756940   0.388876865739468   0.875000000000000   1.0000000
B2   B   0.277781197215222   0.888895727763781   0.875000000000000   1.0000000
B2   B   0.611123134260535   0.888915354243188   0.875000000000000   1.0000000
B2   B   0.444392652615780   0.388862992974527   0.875000000000000   1.0000000
B2   B   0.944458886649055   0.888915354243188   0.875000000000000   1.0000000
B2   B   0.111252543669512   0.888747456330501   0.375000000000000   1.0000000
B2   B   0.777793634160008   0.388876158933295   0.875000000000000   1.0000000
B2   B   0.444161579327712   0.888747456330501   0.375000000000000   1.0000000
B2   B   0.269806766964218   0.387273131318579   0.375000000000000   1.0000000
B2   B   0.276477341179949   0.556135752869198   0.375000000000000   1.0000000
B2   B   0.624523348000774   0.375476651999480   0.375000000000000   1.0000000
B2   B   0.779156940180785   0.891647213694639   0.375000000000000   1.0000000
B2   B   0.946221178540469   0.388301907512228   0.375000000000000   1.0000000
B2   B   0.111110164660896   0.555553662655054   0.875000000000000   1.0000000
B2   B   0.277768441796964   0.055532377221107   0.875000000000000   1.0000000
B2   B   0.777806820303621   0.555570076818345   0.875000000000000   1.0000000
B2   B   0.611123134260535   0.055541113350859   0.875000000000000   1.0000000
B2   B   0.944445688848661   0.055554311151341   0.875000000000000   1.0000000
B2   B   0.055502883874433   0.111050527337306   0.125098148463146   1.0000000
B2   B   0.555583026286975   0.611322211064962   0.125654055066692   1.0000000
B2   B   0.388809934927100   0.110953203187483   0.125448086229410   1.0000000
B2   B   0.889046796812464   0.611190065072907   0.125448086229410   1.0000000
B2   B   0.722214310129558   0.111050527337306   0.125098148463146   1.0000000
B2   B   0.055579264542613   0.777765532297759   0.624533587391273   1.0000000
B2   B   0.388852934421903   0.777765532297759   0.624533587391273   1.0000000
B2   B   0.222139079938531   0.277736206635933   0.624919742020923   1.0000000
B2   B   0.722263793364121   0.777860920061471   0.624919742020923   1.0000000
B2   B   0.555583026286975   0.277594148555244   0.624345944933341   1.0000000
B2   B   0.888949472662701   0.277785689870499   0.624901851536895   1.0000000
B2   B   0.222222222222221   0.777777777777779   0.125448934657378   1.0000000
B2   B   0.055502883874433   0.277785689870499   0.125098148463146   1.0000000
B2   B   0.388677788934944   0.277594148555244   0.125654055066692   1.0000000
B2   B   0.555548736249054   0.777859713949030   0.125188913437291   1.0000000
B2   B   0.888977644366728   0.777859713949030   0.125188913437291   1.0000000
B2   B   0.722263793364121   0.277736206635933   0.125080257978970   1.0000000
B2   B   0.055539570975722   0.944460429024213   0.624694271852080   1.0000000
B2   B   0.388852934421903   0.944420735457554   0.624533587391273   1.0000000
B2   B   0.222140286050892   0.444451263750950   0.624811086562747   1.0000000
B2   B   0.555555555555557   0.444444444444443   0.623812228019127   1.0000000
B2   B   0.722214310129558   0.944497116125400   0.624901851536895   1.0000000
B2   B   0.888977644366728   0.444451263750950   0.624811086562747   1.0000000
B2   B   0.055539570975722   0.444412475284851   0.125305728147956   1.0000000
B2   B   0.222234467702182   0.944420735457554   0.125466412608745   1.0000000
B2   B   0.555587524715198   0.944460429024213   0.125305728147956   1.0000000
B2   B   0.388677788934944   0.444416973712988   0.125654055066692   1.0000000
B2   B   0.888949472662701   0.944497116125400   0.125098148463146   1.0000000
B2   B   0.722405851444683   0.444416973712988   0.125654055066692   1.0000000
B2   B   0.222234467702182   0.611147065578125   0.624533587391273   1.0000000
B2   B   0.055502883874433   0.111050527337306   0.624901851536895   1.0000000
B2   B   0.555583026286975   0.611322211064962   0.624345944933341   1.0000000
B2   B   0.388809934927100   0.110953203187483   0.624551913770602   1.0000000
B2   B   0.889046796812464   0.611190065072907   0.624551913770602   1.0000000
B2   B   0.055579264542613   0.611147065578125   0.125466412608745   1.0000000
B2   B   0.722214310129558   0.111050527337306   0.624901851536895   1.0000000
B2   B   0.222140286050892   0.111022355633292   0.125188913437291   1.0000000
B2   B   0.388809934927100   0.611190065072907   0.125448086229410   1.0000000
B2   B   0.722405851444683   0.611322211064962   0.125654055066692   1.0000000
B2   B   0.555548736249054   0.111022355633292   0.125188913437291   1.0000000
B2   B   0.388809934927100   0.611190065072907   0.624551913770602   1.0000000
B2   B   0.888888888888886   0.111111111111114   0.125041506114939   1.0000000
B2   B   0.222222222222221   0.777777777777779   0.624551065342416   1.0000000
B2   B   0.055502883874433   0.277785689870499   0.624901851536895   1.0000000
B2   B   0.388677788934951   0.277594148555244   0.624345944933341   1.0000000
B2   B   0.555548736249054   0.777859713949030   0.624811086562747   1.0000000
B2   B   0.888977644366728   0.777859713949030   0.624811086562747   1.0000000
B2   B   0.722263793364121   0.277736206635933   0.624919742020923   1.0000000
B2   B   0.055579264542613   0.777765532297759   0.125466412608745   1.0000000
B2   B   0.388852934421910   0.777765532297759   0.125466412608745   1.0000000
B2   B   0.222139079938531   0.277736206635933   0.125080257978970   1.0000000
B2   B   0.722263793364121   0.777860920061471   0.125080257978970   1.0000000
B2   B   0.555583026286975   0.277594148555244   0.125654055066692   1.0000000
B2   B   0.888949472662701   0.277785689870499   0.125098148463146   1.0000000
B2   B   0.055539570975722   0.444412475284851   0.624694271852080   1.0000000
B2   B   0.222234467702182   0.944420735457554   0.624533587391273   1.0000000
B2   B   0.555587524715198   0.944460429024213   0.624694271852080   1.0000000
B2   B   0.388677788934951   0.444416973712988   0.624345944933341   1.0000000
B2   B   0.888949472662701   0.944497116125400   0.624901851536895   1.0000000
B2   B   0.055539570975722   0.944460429024213   0.125305728147956   1.0000000
B2   B   0.722405851444683   0.444416973712988   0.624345944933341   1.0000000
B2   B   0.388852934421903   0.944420735457554   0.125466412608745   1.0000000
B2   B   0.222140286050892   0.444451263750950   0.125188913437291   1.0000000
B2   B   0.222234467702182   0.611147065578125   0.125466412608745   1.0000000
B2   B   0.555555555555557   0.444444444444443   0.126187771980872   1.0000000
B2   B   0.722214310129558   0.944497116125400   0.125098148463146   1.0000000
B2   B   0.888977644366728   0.444451263750950   0.125188913437291   1.0000000
B2   B   0.055579264542613   0.611147065578125   0.624533587391273   1.0000000
B2   B   0.222140286050892   0.111022355633292   0.624811086562747   1.0000000
B2   B   0.722405851444683   0.611322211064962   0.624345944933341   1.0000000
B2   B   0.555548736249054   0.111022355633292   0.624811086562747   1.0000000
B2   B   0.888888888888886   0.111111111111114   0.624958493885187   1.0000000


