data_1
_audit_creation_method   'vasp2cif'
_cell_length_a    14.93631414619966
_cell_length_b    14.936314146199727
_cell_length_c    13.341276283792837
_cell_angle_alpha    90.0
_cell_angle_beta    90.0
_cell_angle_gamma    119.99999999999984

_symmetry_space_group_name_H-M    'P 1'
loop_
_atom_site_label
_atom_site_type_symbol
_atom_site_fract_x
_atom_site_fract_y
_atom_site_fract_z
_atom_site_occupancy
C2   C   0.444497156544991   0.388915244939160   0.375000000000000   1.0000000
N2   N   0.111123401004400   0.055544697949145   0.125275406058257   1.0000000
N2   N   0.611091532051624   0.555537389456726   0.127215142290035   1.0000000
N2   N   0.444421761582562   0.055542865100939   0.125412007201045   1.0000000
N2   N   0.944458812625613   0.555571621953306   0.125287811470137   1.0000000
N2   N   0.777768105649107   0.055550719491220   0.125152356494603   1.0000000
N2   N   0.111117893420258   0.722225613376795   0.624836415853754   1.0000000
N2   N   0.444421761582562   0.722212229814959   0.624587992798953   1.0000000
N2   N   0.277800936525466   0.222226865671453   0.624326382897908   1.0000000
N2   N   0.777776075098664   0.722202019423279   0.624305208534444   1.0000000
N2   N   0.611089708557355   0.222220185904320   0.624278907553753   1.0000000
N2   N   0.944455828584982   0.222238286431623   0.624821834682118   1.0000000
N2   N   0.277768323874057   0.722224670030072   0.125193122762412   1.0000000
N2   N   0.111135837498950   0.222234585416140   0.125341027786331   1.0000000
N2   N   0.444431932046167   0.222226915212736   0.126131366603951   1.0000000
N2   N   0.611089708557355   0.722202855986365   0.125721092446246   1.0000000
N2   N   0.944458812625613   0.722220524005640   0.125287811470137   1.0000000
N2   N   0.777770938318981   0.222232961628050   0.125219326913407   1.0000000
N2   N   0.111117273556820   0.888876994070462   0.624813268053781   1.0000000
N2   N   0.444419252640151   0.888876292986738   0.624813042961430   1.0000000
N2   N   0.277800936525466   0.388907404187342   0.624326382897908   1.0000000
N2   N   0.611091532051624   0.388887475928229   0.622784857709961   1.0000000
N2   N   0.777770938318981   0.888871310024256   0.624780673086589   1.0000000
N2   N   0.944454901385456   0.388912645219999   0.624819442963702   1.0000000
N2   N   0.111123401004400   0.388912036388583   0.125275406058257   1.0000000
N2   N   0.277768323874057   0.888876987177316   0.125193122762412   1.0000000
N2   N   0.611084829743367   0.888873967722562   0.125189134579025   1.0000000
N2   N   0.444423290470846   0.388878311902090   0.125713502114384   1.0000000
N2   N   0.944454901385456   0.888875589498792   0.125180557036298   1.0000000
N2   N   0.777776075098664   0.388907389008715   0.125694791465559   1.0000000
N2   N   0.277776555324830   0.555568875938047   0.624580028160722   1.0000000
N2   N   0.111123401004400   0.055544697949145   0.624724593941743   1.0000000
N2   N   0.611091532051624   0.555537389456726   0.622784857709961   1.0000000
N2   N   0.444421761582562   0.055542865100939   0.624587992798953   1.0000000
N2   N   0.944458812625613   0.555571621953306   0.624712188529866   1.0000000
N2   N   0.111117273556820   0.555573612819690   0.125186731946219   1.0000000
N2   N   0.777768105649107   0.055550719491220   0.624847643505400   1.0000000
N2   N   0.277776555324830   0.055541012720119   0.125419971839280   1.0000000
N2   N   0.444431932046167   0.555538350166764   0.126131366603951   1.0000000
N2   N   0.777780019269582   0.555556676301456   0.126074776705122   1.0000000
N2   N   0.611084829743367   0.055544195354129   0.125189134579025   1.0000000
N2   N   0.444431932046167   0.555538350166764   0.623868633396052   1.0000000
N2   N   0.944455828584982   0.055550875486694   0.125178165317880   1.0000000
N2   N   0.277768323874057   0.722224670030072   0.624806877237587   1.0000000
N2   N   0.111135837498950   0.222234585416140   0.624658972213670   1.0000000
N2   N   0.444431932046167   0.222226915212736   0.623868633396052   1.0000000
N2   N   0.611089708557355   0.722202855986365   0.624278907553753   1.0000000
N2   N   0.944458812625613   0.722220524005640   0.624712188529866   1.0000000
N2   N   0.777770938318981   0.222232961628050   0.624780673086589   1.0000000
N2   N   0.111117893420258   0.722225613376795   0.125163584146247   1.0000000
N2   N   0.444421761582562   0.722212229814959   0.125412007201045   1.0000000
N2   N   0.277800936525466   0.222226865671453   0.125673617102093   1.0000000
N2   N   0.777776075098664   0.722202019423279   0.125694791465559   1.0000000
N2   N   0.611089708557355   0.222220185904320   0.125721092446246   1.0000000
N2   N   0.944455828584982   0.222238286431623   0.125178165317880   1.0000000
N2   N   0.111123401004400   0.388912036388583   0.624724593941743   1.0000000
N2   N   0.277768323874057   0.888876987177316   0.624806877237587   1.0000000
N2   N   0.611084829743367   0.888873967722562   0.624810865420972   1.0000000
N2   N   0.444423290470846   0.388878311902090   0.624286497885615   1.0000000
N2   N   0.944454901385456   0.888875589498792   0.624819442963702   1.0000000
N2   N   0.111117273556820   0.888876994070462   0.125186731946219   1.0000000
N2   N   0.777776075098664   0.388907389008715   0.624305208534444   1.0000000
N2   N   0.444419252640151   0.888876292986738   0.125186957038571   1.0000000
N2   N   0.277800936525466   0.388907404187342   0.125673617102093   1.0000000
N2   N   0.277776555324830   0.555568875938047   0.125419971839280   1.0000000
N2   N   0.611091532051624   0.388887475928229   0.127215142290035   1.0000000
N2   N   0.777770938318981   0.888871310024256   0.125219326913407   1.0000000
N2   N   0.944454901385456   0.388912645219999   0.125180557036298   1.0000000
N2   N   0.111117273556820   0.555573612819690   0.624813268053781   1.0000000
N2   N   0.277776555324830   0.055541012720119   0.624580028160722   1.0000000
N2   N   0.777780019269582   0.555556676301456   0.623925223294880   1.0000000
N2   N   0.611084829743367   0.055544195354129   0.624810865420972   1.0000000
N2   N   0.944455828584982   0.055550875486694   0.624821834682118   1.0000000
N2   N   0.055299085677952   0.111070975317948   0.375000000000000   1.0000000
N2   N   0.554058394449019   0.609691475019433   0.375000000000000   1.0000000
N2   N   0.388898194893602   0.113178834768039   0.375000000000000   1.0000000
N2   N   0.888512418360857   0.610922875847104   0.375000000000000   1.0000000
N2   N   0.721792593465246   0.110952077478851   0.375000000000000   1.0000000
N2   N   0.055556272639314   0.777781989066308   0.875000000000000   1.0000000
N2   N   0.388904118954322   0.777782551442372   0.875000000000000   1.0000000
N2   N   0.222230289716021   0.277781811524677   0.875000000000000   1.0000000
N2   N   0.722231204472628   0.777784721478380   0.875000000000000   1.0000000
N2   N   0.555567256956757   0.277787256477014   0.875000000000000   1.0000000
N2   N   0.888897841550053   0.277778957518432   0.875000000000000   1.0000000
N2   N   0.222193279524935   0.777763306429137   0.375000000000000   1.0000000
N2   N   0.055299085677952   0.277561443693340   0.375000000000000   1.0000000
N2   N   0.392508519749853   0.285328160427009   0.375000000000000   1.0000000
N2   N   0.555022993445496   0.777298581586291   0.375000000000000   1.0000000
N2   N   0.888391744709402   0.777442451548676   0.375000000000000   1.0000000
N2   N   0.721643606807452   0.277683162592801   0.375000000000000   1.0000000
N2   N   0.055559559064482   0.944452141908520   0.875000000000000   1.0000000
N2   N   0.388904118954322   0.944454900845286   0.875000000000000   1.0000000
N2   N   0.222230036420855   0.444443189356312   0.875000000000000   1.0000000
N2   N   0.555567681621509   0.444450507477419   0.875000000000000   1.0000000
N2   N   0.722232610817546   0.944451261737298   0.875000000000000   1.0000000
N2   N   0.888892599143153   0.444441290720927   0.875000000000000   1.0000000
N2   N   0.055738710607003   0.444088867697247   0.375000000000000   1.0000000
N2   N   0.222359650902973   0.945209002390081   0.375000000000000   1.0000000
N2   N   0.555145434935184   0.944239384134256   0.375000000000000   1.0000000
N2   N   0.392508519749853   0.440513692656179   0.375000000000000   1.0000000
N2   N   0.888534447704387   0.944258502641025   0.375000000000000   1.0000000
N2   N   0.720676070131862   0.445152852607833   0.375000000000000   1.0000000
N2   N   0.222230221773228   0.611108731229294   0.875000000000000   1.0000000
N2   N   0.055562286480977   0.111116367778918   0.875000000000000   1.0000000
N2   N   0.555567256956757   0.611113333813079   0.875000000000000   1.0000000
N2   N   0.388904196495062   0.111125680824168   0.875000000000000   1.0000000
N2   N   0.888887894987592   0.611110614160473   0.875000000000000   1.0000000
N2   N   0.055432866450299   0.610864284281474   0.375000000000000   1.0000000
N2   N   0.722232610817546   0.111114682413583   0.875000000000000   1.0000000
N2   N   0.223444655944619   0.113075230687273   0.375000000000000   1.0000000
N2   N   0.388898194893602   0.609052693458903   0.375000000000000   1.0000000
N2   N   0.720676070131862   0.608856550857364   0.375000000000000   1.0000000
N2   N   0.555022993445496   0.111057745192546   0.375000000000000   1.0000000
N2   N   0.388904196495062   0.611111849004237   0.875000000000000   1.0000000
N2   N   0.888531802333746   0.110932567833545   0.375000000000000   1.0000000
N2   N   0.222229793776012   0.777781563554675   0.875000000000000   1.0000000
N2   N   0.055562286480977   0.277779252035396   0.875000000000000   1.0000000
N2   N   0.388900817602512   0.277785307802377   0.875000000000000   1.0000000
N2   N   0.555569263920936   0.777783831891469   0.875000000000000   1.0000000
N2   N   0.888892599143153   0.777784641755563   0.875000000000000   1.0000000
N2   N   0.722231204472628   0.277779816327586   0.875000000000000   1.0000000
N2   N   0.055432866450299   0.777901915502162   0.375000000000000   1.0000000
N2   N   0.388740839135935   0.777141722192916   0.375000000000000   1.0000000
N2   N   0.221847268007046   0.277590300670192   0.375000000000000   1.0000000
N2   N   0.721643606807452   0.777293777547990   0.375000000000000   1.0000000
N2   N   0.554058394449019   0.277700252762920   0.375000000000000   1.0000000
N2   N   0.888534447704387   0.277609278396694   0.375000000000000   1.0000000
N2   N   0.055559559064482   0.444440750489290   0.875000000000000   1.0000000
N2   N   0.222230221773228   0.944454823877267   0.875000000000000   1.0000000
N2   N   0.555567984254956   0.944450658794144   0.875000000000000   1.0000000
N2   N   0.388900817602512   0.444448843133473   0.875000000000000   1.0000000
N2   N   0.888897841550053   0.944452217364958   0.875000000000000   1.0000000
N2   N   0.055738710607003   0.944983176243085   0.375000000000000   1.0000000
N2   N   0.722224315284904   0.444444429565321   0.875000000000000   1.0000000
N2   N   0.388740839135935   0.944932450276354   0.375000000000000   1.0000000
N2   N   0.223444655944619   0.443702758590680   0.375000000000000   1.0000000
N2   N   0.222359650902973   0.610483981846229   0.375000000000000   1.0000000
N2   N   0.721792593465246   0.944173849319732   0.375000000000000   1.0000000
N2   N   0.888391744709402   0.444282626494059   0.375000000000000   1.0000000
N2   N   0.055556272639314   0.611107616906342   0.875000000000000   1.0000000
N2   N   0.222230036420855   0.111120180397877   0.875000000000000   1.0000000
N2   N   0.722224315284904   0.611113219052922   0.875000000000000   1.0000000
N2   N   0.555569263920936   0.111118765362805   0.875000000000000   1.0000000
N2   N   0.888899265033113   0.111116299183228   0.875000000000000   1.0000000
B2   B   0.111033999910279   0.056058700640897   0.375000000000000   1.0000000
B2   B   0.615329990163130   0.566400964998869   0.375000000000000   1.0000000
B2   B   0.444027484305575   0.055641271631883   0.375000000000000   1.0000000
B2   B   0.944886089049822   0.555476964314526   0.375000000000000   1.0000000
B2   B   0.777527960304959   0.055430646819146   0.375000000000000   1.0000000
B2   B   0.111126498566432   0.722229915949879   0.875000000000000   1.0000000
B2   B   0.444453430187211   0.722264635069605   0.875000000000000   1.0000000
B2   B   0.277723137870523   0.222181104231968   0.875000000000000   1.0000000
B2   B   0.777830971526082   0.722293958217402   0.875000000000000   1.0000000
B2   B   0.611144939411035   0.222181443111575   0.875000000000000   1.0000000
B2   B   0.944439923588044   0.222208068712771   0.875000000000000   1.0000000
B2   B   0.277540902335846   0.721924018099875   0.375000000000000   1.0000000
B2   B   0.109436892907132   0.221385113120230   0.375000000000000   1.0000000
B2   B   0.443685472450090   0.222350475980047   0.375000000000000   1.0000000
B2   B   0.611467792009673   0.724274510649513   0.375000000000000   1.0000000
B2   B   0.944886089049822   0.722742458068634   0.375000000000000   1.0000000
B2   B   0.777806898448101   0.221642577256255   0.375000000000000   1.0000000
B2   B   0.111112602706611   0.888892361517403   0.875000000000000   1.0000000
B2   B   0.444458130341034   0.888895731837179   0.875000000000000   1.0000000
B2   B   0.277723137870523   0.388875366971884   0.875000000000000   1.0000000
B2   B   0.611145203184450   0.388874219597030   0.875000000000000   1.0000000
B2   B   0.777812344641166   0.888947376637801   0.875000000000000   1.0000000
B2   B   0.944463433946852   0.388871048942310   0.875000000000000   1.0000000
B2   B   0.111033999910279   0.388308632602712   0.375000000000000   1.0000000
B2   B   0.277540902335846   0.888950217569300   0.375000000000000   1.0000000
B2   B   0.610939343262633   0.889178511427334   0.375000000000000   1.0000000
B2   B   0.944554404536342   0.889447670132625   0.375000000000000   1.0000000
B2   B   0.778464283555254   0.387863938399001   0.375000000000000   1.0000000
B2   B   0.277753766632490   0.555566639182624   0.875000000000000   1.0000000
B2   B   0.111079658680165   0.055539181984984   0.875000000000000   1.0000000
B2   B   0.611145203184450   0.555604316920747   0.875000000000000   1.0000000
B2   B   0.444453430187211   0.055522128450942   0.875000000000000   1.0000000
B2   B   0.944485598467831   0.555560660857796   0.875000000000000   1.0000000
B2   B   0.111061295832550   0.555184803378335   0.375000000000000   1.0000000
B2   B   0.777801126620682   0.055567229977009   0.875000000000000   1.0000000
B2   B   0.277223813618924   0.055762509737477   0.375000000000000   1.0000000
B2   B   0.443685472450090   0.554668329803379   0.375000000000000   1.0000000
B2   B   0.779480395408343   0.556406864370842   0.375000000000000   1.0000000
B2   B   0.610939343262633   0.055094165168626   0.375000000000000   1.0000000
B2   B   0.444432911301120   0.555589853075273   0.875000000000000   1.0000000
B2   B   0.943915342719491   0.055409424586912   0.375000000000000   1.0000000
B2   B   0.277779981930591   0.722234031233606   0.875000000000000   1.0000000
B2   B   0.111061371495411   0.222197352414371   0.875000000000000   1.0000000
B2   B   0.444432911301120   0.222176391559186   0.875000000000000   1.0000000
B2   B   0.611144939411035   0.722296829632787   0.875000000000000   1.0000000
B2   B   0.944485598467831   0.722258270943370   0.875000000000000   1.0000000
B2   B   0.777812344641166   0.222198301336690   0.875000000000000   1.0000000
B2   B   0.111124818239285   0.722229075786308   0.375000000000000   1.0000000
B2   B   0.444027484305575   0.721719546007030   0.375000000000000   1.0000000
B2   B   0.276449169731729   0.223073284387004   0.375000000000000   1.0000000
B2   B   0.778464283555254   0.723933678489577   0.375000000000000   1.0000000
B2   B   0.611467792009673   0.220526614693486   0.375000000000000   1.0000000
B2   B   0.943915342719491   0.221839251465917   0.375000000000000   1.0000000
B2   B   0.111079658680165   0.388873810028511   0.875000000000000   1.0000000
B2   B   0.277779981930591   0.888879284030312   0.875000000000000   1.0000000
B2   B   0.611140359907907   0.888930626391267   0.875000000000000   1.0000000
B2   B   0.444417748676741   0.388875541005037   0.875000000000000   1.0000000
B2   B   0.944463433946852   0.888925718337868   0.875000000000000   1.0000000
B2   B   0.111061295832550   0.889209825787549   0.375000000000000   1.0000000
B2   B   0.777830971526082   0.388870346642009   0.875000000000000   1.0000000
B2   B   0.444114004635165   0.888723668984249   0.375000000000000   1.0000000
B2   B   0.276449169731729   0.386709218678055   0.375000000000000   1.0000000
B2   B   0.277223813618924   0.554794637214783   0.375000000000000   1.0000000
B2   B   0.615329990163130   0.382262358497588   0.375000000000000   1.0000000
B2   B   0.777806898448101   0.889497654525172   0.375000000000000   1.0000000
B2   B   0.944554404536342   0.388440067737045   0.375000000000000   1.0000000
B2   B   0.111112602706611   0.555553574522536   0.875000000000000   1.0000000
B2   B   0.277753766632490   0.055520460783203   0.875000000000000   1.0000000
B2   B   0.777838507038621   0.555585920185980   0.875000000000000   1.0000000
B2   B   0.611140359907907   0.055543066849969   0.875000000000000   1.0000000
B2   B   0.944439923588044   0.055565188208609   0.875000000000000   1.0000000
B2   B   0.055492189366769   0.111042828239360   0.124772705144629   1.0000000
B2   B   0.555531751518559   0.611289253882684   0.125272386726432   1.0000000
B2   B   0.388761874673267   0.110854739128142   0.124915100308220   1.0000000
B2   B   0.889142214767968   0.611237774050657   0.124835679710999   1.0000000
B2   B   0.722223045992428   0.111063479204019   0.124722954510407   1.0000000
B2   B   0.055662248154776   0.777807181319176   0.625255205577443   1.0000000
B2   B   0.388803915626643   0.777818367887543   0.625214796108931   1.0000000
B2   B   0.222053648239580   0.277693490786458   0.625249070565410   1.0000000
B2   B   0.722310273634292   0.777937267434715   0.625147686545724   1.0000000
B2   B   0.555531751518559   0.277575830969209   0.624727613273566   1.0000000
B2   B   0.888936701740328   0.277785931441921   0.625273207936816   1.0000000
B2   B   0.222208422765563   0.777770878049451   0.124765713305551   1.0000000
B2   B   0.055492189366769   0.277782694460745   0.124772705144629   1.0000000
B2   B   0.388756440576977   0.277637453563084   0.124641102151867   1.0000000
B2   B   0.555505227737455   0.777901953056833   0.124809622250850   1.0000000
B2   B   0.889061486023371   0.777888866688770   0.124773950812348   1.0000000
B2   B   0.722310273634292   0.277706339532913   0.124852313454273   1.0000000
B2   B   0.055571006267959   0.944396550828511   0.625249980467252   1.0000000
B2   B   0.388803915626643   0.944318881072436   0.625214796108931   1.0000000
B2   B   0.222089906836957   0.444505202700608   0.625173000979122   1.0000000
B2   B   0.555490248361758   0.444411790847543   0.624437416850670   1.0000000
B2   B   0.722223045992428   0.944492900121745   0.625277045489589   1.0000000
B2   B   0.889061486023371   0.444505952667935   0.625226049187653   1.0000000
B2   B   0.055571006267959   0.444507788772776   0.124750019532749   1.0000000
B2   B   0.222166741466881   0.944306021135905   0.124786183998577   1.0000000
B2   B   0.555496154556082   0.944414743944706   0.124723453012334   1.0000000
B2   B   0.388756440576977   0.444452320347229   0.124641102151867   1.0000000
B2   B   0.888936701740328   0.944484103631741   0.124726792063185   1.0000000
B2   B   0.722436753109083   0.444492023262428   0.125306411580931   1.0000000
B2   B   0.222166741466881   0.611194053664314   0.625213816001425   1.0000000
B2   B   0.055492189366769   0.111042828239360   0.625227294855374   1.0000000
B2   B   0.555531751518559   0.611289253882684   0.624727613273566   1.0000000
B2   B   0.388761874673267   0.110854739128142   0.625084899691779   1.0000000
B2   B   0.889142214767968   0.611237774050657   0.625164320289000   1.0000000
B2   B   0.055662248154776   0.611188400168936   0.124744794422555   1.0000000
B2   B   0.722223045992428   0.111063479204019   0.625277045489589   1.0000000
B2   B   0.222089906836957   0.110918037469684   0.124826999020878   1.0000000
B2   B   0.388761874673267   0.611240468878467   0.124915100308220   1.0000000
B2   B   0.722436753109083   0.611278063179992   0.125306411580931   1.0000000
B2   B   0.555505227737455   0.110936608013958   0.124809622250850   1.0000000
B2   B   0.388761874673267   0.611240468878467   0.625084899691779   1.0000000
B2   B   0.888884005341964   0.111108669337652   0.124755046112403   1.0000000
B2   B   0.222208422765563   0.777770878049451   0.625234286694451   1.0000000
B2   B   0.055492189366769   0.277782694460745   0.625227294855374   1.0000000
B2   B   0.388756440576977   0.277637453563084   0.625358897848132   1.0000000
B2   B   0.555505227737455   0.777901953056833   0.625190377749148   1.0000000
B2   B   0.889061486023371   0.777888866688770   0.625226049187653   1.0000000
B2   B   0.722310273634292   0.277706339532913   0.625147686545724   1.0000000
B2   B   0.055662248154776   0.777807181319176   0.124744794422555   1.0000000
B2   B   0.388803915626643   0.777818367887543   0.124785203891070   1.0000000
B2   B   0.222053648239580   0.277693490786458   0.124750929434591   1.0000000
B2   B   0.722310273634292   0.777937267434715   0.124852313454273   1.0000000
B2   B   0.555531751518559   0.277575830969209   0.125272386726432   1.0000000
B2   B   0.888936701740328   0.277785931441921   0.124726792063185   1.0000000
B2   B   0.055571006267959   0.444507788772776   0.625249980467252   1.0000000
B2   B   0.222166741466881   0.944306021135905   0.625213816001425   1.0000000
B2   B   0.555496154556082   0.944414743944706   0.625276546987664   1.0000000
B2   B   0.388756440576977   0.444452320347229   0.625358897848132   1.0000000
B2   B   0.888936701740328   0.944484103631741   0.625273207936816   1.0000000
B2   B   0.055571006267959   0.944396550828511   0.124750019532749   1.0000000
B2   B   0.722436753109083   0.444492023262428   0.624693588419071   1.0000000
B2   B   0.388803915626643   0.944318881072436   0.124785203891070   1.0000000
B2   B   0.222089906836957   0.444505202700608   0.124826999020878   1.0000000
B2   B   0.222166741466881   0.611194053664314   0.124786183998577   1.0000000
B2   B   0.555490248361758   0.444411790847543   0.125562583149329   1.0000000
B2   B   0.722223045992428   0.944492900121745   0.124722954510407   1.0000000
B2   B   0.889061486023371   0.444505952667935   0.124773950812348   1.0000000
B2   B   0.055662248154776   0.611188400168936   0.625255205577443   1.0000000
B2   B   0.222089906836957   0.110918037469684   0.625173000979122   1.0000000
B2   B   0.722436753109083   0.611278063179992   0.624693588419071   1.0000000
B2   B   0.555505227737455   0.110936608013958   0.625190377749148   1.0000000
B2   B   0.888884005341964   0.111108669337652   0.625244953887599   1.0000000


