data_1
_audit_creation_method   'vasp2cif'
_cell_length_a    14.93631414619966
_cell_length_b    14.936314146199727
_cell_length_c    13.341276283792837
_cell_angle_alpha    90.0
_cell_angle_beta    90.0
_cell_angle_gamma    119.99999999999984

_symmetry_space_group_name_H-M    'P 1'
loop_
_atom_site_label
_atom_site_type_symbol
_atom_site_fract_x
_atom_site_fract_y
_atom_site_fract_z
_atom_site_occupancy
In2   In   0.444444444444443   0.388888888888886   0.375000000000000   1.0000000
N2   N   0.111086133552790   0.055533458636465   0.124848406645093   1.0000000
N2   N   0.611139652742952   0.555590212594751   0.124777069759651   1.0000000
N2   N   0.444447325083675   0.055533458636465   0.124848406645093   1.0000000
N2   N   0.944451651437796   0.555557442708409   0.124989391106453   1.0000000
N2   N   0.777777777777779   0.055555555555557   0.124942515111315   1.0000000
N2   N   0.111111111111114   0.722222222222221   0.625013872237803   1.0000000
N2   N   0.444447325083675   0.722247199780547   0.625151593354907   1.0000000
N2   N   0.277743120738585   0.222193680590383   0.625222930240350   1.0000000
N2   N   0.777799874696871   0.722247199780547   0.625151593354907   1.0000000
N2   N   0.611121381250553   0.222211952082784   0.625178319199330   1.0000000
N2   N   0.944436834874546   0.222219336794476   0.625059472606453   1.0000000
N2   N   0.277775890624927   0.722227542062720   0.124989391106453   1.0000000
N2   N   0.111090570832239   0.222211952082784   0.124821680800670   1.0000000
N2   N   0.444450559851799   0.222193680590383   0.124777069759651   1.0000000
N2   N   0.611121381250553   0.722242762501096   0.124821680800670   1.0000000
N2   N   0.944451651437796   0.722227542062720   0.124989391106453   1.0000000
N2   N   0.777782501919930   0.222219336794476   0.124940527393547   1.0000000
N2   N   0.111105791270614   0.888881681895533   0.625010608893547   1.0000000
N2   N   0.444448213956600   0.888890773644965   0.625042197611343   1.0000000
N2   N   0.277743120738585   0.388882773481530   0.625222930240350   1.0000000
N2   N   0.611139652742952   0.388882773481530   0.625222930240350   1.0000000
N2   N   0.777782501919930   0.888896498458782   0.625059472606453   1.0000000
N2   N   0.944442559688363   0.388885119376729   0.625042197611343   1.0000000
N2   N   0.111086133552790   0.388886008249653   0.124848406645093   1.0000000
N2   N   0.277775890624927   0.888881681895533   0.124989391106453   1.0000000
N2   N   0.611113996538860   0.888896498458782   0.124940527393547   1.0000000
N2   N   0.444444444444443   0.388888888888886   0.129053526019586   1.0000000
N2   N   0.944442559688363   0.888890773644965   0.124957802388658   1.0000000
N2   N   0.777799874696871   0.388886008249653   0.124848406645093   1.0000000
N2   N   0.277767757222187   0.555565576111149   0.625084505858325   1.0000000
N2   N   0.111086133552790   0.055533458636465   0.625151593354907   1.0000000
N2   N   0.611139652742952   0.555590212594751   0.625222930240350   1.0000000
N2   N   0.444447325083675   0.055533458636465   0.625151593354907   1.0000000
N2   N   0.944451651437796   0.555557442708409   0.625010608893547   1.0000000
N2   N   0.111105791270614   0.555557442708409   0.124989391106453   1.0000000
N2   N   0.777777777777779   0.055555555555557   0.625057484888685   1.0000000
N2   N   0.277767757222187   0.055535514444375   0.124915494141675   1.0000000
N2   N   0.444450559851799   0.555590212594751   0.124777069759651   1.0000000
N2   N   0.777797818888961   0.555565576111149   0.124915494141675   1.0000000
N2   N   0.611113996538860   0.055550831413406   0.124940527393547   1.0000000
N2   N   0.444450559851799   0.555590212594751   0.625222930240350   1.0000000
N2   N   0.944436834874546   0.055550831413406   0.124940527393547   1.0000000
N2   N   0.277775890624927   0.722227542062720   0.625010608893547   1.0000000
N2   N   0.111090570832239   0.222211952082784   0.625178319199330   1.0000000
N2   N   0.444450559851799   0.222193680590383   0.625222930240350   1.0000000
N2   N   0.611121381250553   0.722242762501096   0.625178319199330   1.0000000
N2   N   0.944451651437796   0.722227542062720   0.625010608893547   1.0000000
N2   N   0.777782501919930   0.222219336794476   0.625059472606453   1.0000000
N2   N   0.111111111111114   0.722222222222221   0.124986127762196   1.0000000
N2   N   0.444447325083675   0.722247199780547   0.124848406645093   1.0000000
N2   N   0.277743120738585   0.222193680590383   0.124777069759651   1.0000000
N2   N   0.777799874696871   0.722247199780547   0.124848406645093   1.0000000
N2   N   0.611121381250553   0.222211952082784   0.124821680800670   1.0000000
N2   N   0.944436834874546   0.222219336794476   0.124940527393547   1.0000000
N2   N   0.111086133552790   0.388886008249653   0.625151593354907   1.0000000
N2   N   0.277775890624927   0.888881681895533   0.625010608893547   1.0000000
N2   N   0.611113996538860   0.888896498458782   0.625059472606453   1.0000000
N2   N   0.444444444444443   0.388888888888886   0.620946473980412   1.0000000
N2   N   0.944442559688363   0.888890773644965   0.625042197611343   1.0000000
N2   N   0.111105791270614   0.888881681895533   0.124989391106453   1.0000000
N2   N   0.777799874696871   0.388886008249653   0.625151593354907   1.0000000
N2   N   0.444448213956600   0.888890773644965   0.124957802388658   1.0000000
N2   N   0.277743120738585   0.388882773481530   0.124777069759651   1.0000000
N2   N   0.277767757222187   0.555565576111149   0.124915494141675   1.0000000
N2   N   0.611139652742952   0.388882773481530   0.124777069759651   1.0000000
N2   N   0.777782501919930   0.888896498458782   0.124940527393547   1.0000000
N2   N   0.944442559688363   0.388885119376729   0.124957802388658   1.0000000
N2   N   0.111105791270614   0.555557442708409   0.625010608893547   1.0000000
N2   N   0.277767757222187   0.055535514444375   0.625084505858325   1.0000000
N2   N   0.777797818888961   0.555565576111149   0.625084505858325   1.0000000
N2   N   0.611113996538860   0.055550831413406   0.625059472606453   1.0000000
N2   N   0.944436834874546   0.055550831413406   0.625059472606453   1.0000000
N2   N   0.053950928448217   0.110080063402158   0.375000000000000   1.0000000
N2   N   0.556273542998548   0.612547085997100   0.375000000000000   1.0000000
N2   N   0.387206315505834   0.101457691982390   0.375000000000000   1.0000000
N2   N   0.892226756600373   0.612780044966858   0.375000000000000   1.0000000
N2   N   0.722514329238335   0.110819004095001   0.375000000000000   1.0000000
N2   N   0.055554300073261   0.777779033260074   0.875000000000000   1.0000000
N2   N   0.388891443053766   0.777780184516146   0.875000000000000   1.0000000
N2   N   0.222221563515408   0.277777448424372   0.875000000000000   1.0000000
N2   N   0.722223938464334   0.777780862238463   0.875000000000000   1.0000000
N2   N   0.555555884908964   0.277777448424372   0.875000000000000   1.0000000
N2   N   0.888889046152836   0.277778092305680   0.875000000000000   1.0000000
N2   N   0.221583843949729   0.777458588641532   0.375000000000000   1.0000000
N2   N   0.053950928448217   0.277204198379395   0.375000000000000   1.0000000
N2   N   0.372582770762807   0.245165541525621   0.375000000000000   1.0000000
N2   N   0.556129134953941   0.779382404885119   0.375000000000000   1.0000000
N2   N   0.891598117070977   0.779968360203610   0.375000000000000   1.0000000
N2   N   0.723253269931178   0.277204198379395   0.375000000000000   1.0000000
N2   N   0.055553148817190   0.944444591870957   0.875000000000000   1.0000000
N2   N   0.388891443053766   0.944444591870957   0.875000000000000   1.0000000
N2   N   0.222222755840284   0.444440421145708   0.875000000000000   1.0000000
N2   N   0.555538487086077   0.444435910209703   0.875000000000000   1.0000000
N2   N   0.722222564359480   0.944445128718961   0.875000000000000   1.0000000
N2   N   0.888888741462371   0.444441890279563   0.875000000000000   1.0000000
N2   N   0.053364973129726   0.444963090200704   0.375000000000000   1.0000000
N2   N   0.220553288366477   0.941106576732956   0.375000000000000   1.0000000
N2   N   0.556023524071204   0.944678428702266   0.375000000000000   1.0000000
N2   N   0.372582770762807   0.460750562570521   0.375000000000000   1.0000000
N2   N   0.888654904631063   0.944678428702266   0.375000000000000   1.0000000
N2   N   0.731875641350947   0.446127017827494   0.375000000000000   1.0000000
N2   N   0.222223934588255   0.611109398745080   0.875000000000000   1.0000000
N2   N   0.055552471094872   0.111109394869001   0.875000000000000   1.0000000
N2   N   0.555555884908964   0.611111769817927   0.875000000000000   1.0000000
N2   N   0.388892912187621   0.111115668027911   0.875000000000000   1.0000000
N2   N   0.888885464156818   0.611109398745080   0.875000000000000   1.0000000
N2   N   0.055874744691803   0.611749489383607   0.375000000000000   1.0000000
N2   N   0.722222564359480   0.111110768973855   0.875000000000000   1.0000000
N2   N   0.214251376476548   0.101457691982390   0.375000000000000   1.0000000
N2   N   0.387206315505834   0.619081956856787   0.375000000000000   1.0000000
N2   N   0.731875641350947   0.619081956856787   0.375000000000000   1.0000000
N2   N   0.556129134953941   0.110080063402158   0.375000000000000   1.0000000
N2   N   0.388892912187621   0.611110577493052   0.875000000000000   1.0000000
N2   N   0.888304674856660   0.110819004095001   0.375000000000000   1.0000000
N2   N   0.222224733186814   0.777779033260074   0.875000000000000   1.0000000
N2   N   0.055552471094872   0.277776409559207   0.875000000000000   1.0000000
N2   N   0.388897423123626   0.277794846247259   0.875000000000000   1.0000000
N2   N   0.555556923774128   0.777780862238463   0.875000000000000   1.0000000
N2   N   0.888888741462371   0.777780184516146   0.875000000000000   1.0000000
N2   N   0.722223938464334   0.277776409559207   0.875000000000000   1.0000000
N2   N   0.055874744691803   0.777458588641532   0.375000000000000   1.0000000
N2   N   0.388370243132625   0.779968360203610   0.375000000000000   1.0000000
N2   N   0.220786247336237   0.277059790334786   0.375000000000000   1.0000000
N2   N   0.723253269931178   0.779382404885119   0.375000000000000   1.0000000
N2   N   0.556273542998548   0.277059790334786   0.375000000000000   1.0000000
N2   N   0.888654904631063   0.277309809262133   0.375000000000000   1.0000000
N2   N   0.055553148817190   0.444441890279563   0.875000000000000   1.0000000
N2   N   0.222223934588255   0.944447869176510   0.875000000000000   1.0000000
N2   N   0.555555241027655   0.944444287180492   0.875000000000000   1.0000000
N2   N   0.388897423123626   0.444435910209703   0.875000000000000   1.0000000
N2   N   0.888889046152836   0.944444287180492   0.875000000000000   1.0000000
N2   N   0.053364973129726   0.941735216262351   0.375000000000000   1.0000000
N2   N   0.722217665305424   0.444440421145708   0.875000000000000   1.0000000
N2   N   0.388370243132625   0.941735216262351   0.375000000000000   1.0000000
N2   N   0.214251376476548   0.446127017827494   0.375000000000000   1.0000000
N2   N   0.220553288366477   0.612780044966858   0.375000000000000   1.0000000
N2   N   0.588167791807714   0.460750562570521   0.375000000000000   1.0000000
N2   N   0.722514329238335   0.945028658476669   0.375000000000000   1.0000000
N2   N   0.891598117070977   0.444963090200704   0.375000000000000   1.0000000
N2   N   0.055554300073261   0.611108600146522   0.875000000000000   1.0000000
N2   N   0.222222755840284   0.111115668027911   0.875000000000000   1.0000000
N2   N   0.722217665305424   0.611110577493052   0.875000000000000   1.0000000
N2   N   0.555556923774128   0.111109394869001   0.875000000000000   1.0000000
N2   N   0.888888204614368   0.111110768973855   0.875000000000000   1.0000000
B2   B   0.105960154828406   0.050864584257089   0.375000000000000   1.0000000
B2   B   0.622979585099922   0.565363069728084   0.375000000000000   1.0000000
B2   B   0.444904429428684   0.050864584257089   0.375000000000000   1.0000000
B2   B   0.945892437964881   0.555977985999826   0.375000000000000   1.0000000
B2   B   0.777777777777779   0.055555555555557   0.375000000000000   1.0000000
B2   B   0.111111111111114   0.722222222222221   0.875000000000000   1.0000000
B2   B   0.444453602039395   0.722241143413028   0.875000000000000   1.0000000
B2   B   0.277745021458319   0.222201252780970   0.875000000000000   1.0000000
B2   B   0.777787541373632   0.722241143413028   0.875000000000000   1.0000000
B2   B   0.611126389498387   0.222206943834948   0.875000000000000   1.0000000
B2   B   0.944432186253324   0.222214009676214   0.875000000000000   1.0000000
B2   B   0.277355347333510   0.723247785298391   0.375000000000000   1.0000000
B2   B   0.109645343695200   0.221489338514264   0.375000000000000   1.0000000
B2   B   0.442383484628162   0.210353748233413   0.375000000000000   1.0000000
B2   B   0.611843994819071   0.723687989638137   0.375000000000000   1.0000000
B2   B   0.945892437964881   0.723247785298391   0.375000000000000   1.0000000
B2   B   0.777965242390636   0.221497408948178   0.375000000000000   1.0000000
B2   B   0.111106507367129   0.888887470042176   0.875000000000000   1.0000000
B2   B   0.444452500084355   0.888892916708842   0.875000000000000   1.0000000
B2   B   0.277745021458319   0.388877102010679   0.875000000000000   1.0000000
B2   B   0.611132080552366   0.388877102010679   0.875000000000000   1.0000000
B2   B   0.777781823422889   0.888901147080004   0.875000000000000   1.0000000
B2   B   0.944440416624486   0.388880833248974   0.875000000000000   1.0000000
B2   B   0.105960154828406   0.388428903904645   0.375000000000000   1.0000000
B2   B   0.277355347333510   0.887440895368448   0.375000000000000   1.0000000
B2   B   0.611835924385157   0.889801166775788   0.375000000000000   1.0000000
B2   B   0.944156139609666   0.889177193723663   0.375000000000000   1.0000000
B2   B   0.782468749076245   0.388428903904645   0.375000000000000   1.0000000
B2   B   0.277772524715689   0.555560808617646   0.875000000000000   1.0000000
B2   B   0.111092189920308   0.055545791959704   0.875000000000000   1.0000000
B2   B   0.611132080552366   0.555588311875016   0.875000000000000   1.0000000
B2   B   0.444453602039395   0.055545791959704   0.875000000000000   1.0000000
B2   B   0.944445863291152   0.555552370658281   0.875000000000000   1.0000000
B2   B   0.110085548034945   0.555977985999826   0.375000000000000   1.0000000
B2   B   0.777777777777779   0.055555555555557   0.875000000000000   1.0000000
B2   B   0.275332431079243   0.050664862158485   0.375000000000000   1.0000000
B2   B   0.442383484628162   0.565363069728084   0.375000000000000   1.0000000
B2   B   0.782668471174850   0.558000902254094   0.375000000000000   1.0000000
B2   B   0.611835924385157   0.055368090942699   0.375000000000000   1.0000000
B2   B   0.444456231322650   0.555588311875016   0.875000000000000   1.0000000
B2   B   0.943532166557541   0.055368090942699   0.375000000000000   1.0000000
B2   B   0.277780962675055   0.722226825966206   0.875000000000000   1.0000000
B2   B   0.111080554336567   0.222206943834948   0.875000000000000   1.0000000
B2   B   0.444456231322650   0.222201252780970   0.875000000000000   1.0000000
B2   B   0.611126389498387   0.722252778996769   0.875000000000000   1.0000000
B2   B   0.944445863291152   0.722226825966206   0.875000000000000   1.0000000
B2   B   0.777781823422889   0.222214009676214   0.875000000000000   1.0000000
B2   B   0.111111111111114   0.722222222222221   0.375000000000000   1.0000000
B2   B   0.444904429428684   0.727373178504929   0.375000000000000   1.0000000
B2   B   0.267970263605251   0.210353748233413   0.375000000000000   1.0000000
B2   B   0.782468749076245   0.727373178504929   0.375000000000000   1.0000000
B2   B   0.611843994819071   0.221489338514264   0.375000000000000   1.0000000
B2   B   0.943532166557541   0.221497408948178   0.375000000000000   1.0000000
B2   B   0.111092189920308   0.388879731293933   0.875000000000000   1.0000000
B2   B   0.277780962675055   0.888887470042176   0.875000000000000   1.0000000
B2   B   0.611119323657122   0.888901147080004   0.875000000000000   1.0000000
B2   B   0.444444444444443   0.388888888888886   0.875000000000000   1.0000000
B2   B   0.944440416624486   0.888892916708842   0.875000000000000   1.0000000
B2   B   0.110085548034945   0.887440895368448   0.375000000000000   1.0000000
B2   B   0.777787541373632   0.388879731293933   0.875000000000000   1.0000000
B2   B   0.445021054113997   0.889177193723663   0.375000000000000   1.0000000
B2   B   0.267970263605251   0.390949848705167   0.375000000000000   1.0000000
B2   B   0.275332431079243   0.558000902254094   0.375000000000000   1.0000000
B2   B   0.622979585099922   0.390949848705167   0.375000000000000   1.0000000
B2   B   0.777965242390636   0.889801166775788   0.375000000000000   1.0000000
B2   B   0.944156139609666   0.388312279219331   0.375000000000000   1.0000000
B2   B   0.111106507367129   0.555552370658281   0.875000000000000   1.0000000
B2   B   0.277772524715689   0.055545049431378   0.875000000000000   1.0000000
B2   B   0.777788283901958   0.555560808617646   0.875000000000000   1.0000000
B2   B   0.611119323657122   0.055551509910447   0.875000000000000   1.0000000
B2   B   0.944432186253324   0.055551509910447   0.875000000000000   1.0000000
B2   B   0.055512282611253   0.111075909778547   0.124945004141409   1.0000000
B2   B   0.555614578207030   0.611229156414061   0.124833963354829   1.0000000
B2   B   0.388843378167476   0.110979002994154   0.124866799949974   1.0000000
B2   B   0.888934118858392   0.611133726095867   0.125008938616975   1.0000000
B2   B   0.722227412360506   0.111105920972830   0.124997501436823   1.0000000
B2   B   0.055558191277433   0.777775142055903   0.624992629905381   1.0000000
B2   B   0.388885150760040   0.777801307778531   0.625015246475924   1.0000000
B2   B   0.222104176919275   0.277718755126305   0.625166036645172   1.0000000
B2   B   0.722257423554789   0.777821050722083   0.625054995858591   1.0000000
B2   B   0.555614578207030   0.277718755126305   0.625166036645172   1.0000000
B2   B   0.888884873764010   0.277769747528029   0.625004817257861   1.0000000
B2   B   0.222216950778469   0.777775142055903   0.125007370094618   1.0000000
B2   B   0.055512282611253   0.277769706166041   0.124945004141409   1.0000000
B2   B   0.388692222101963   0.277384444203933   0.125829851197191   1.0000000
B2   B   0.555563627167295   0.777821050722083   0.124945004141409   1.0000000
B2   B   0.888916157018482   0.777801307778531   0.124984753524077   1.0000000
B2   B   0.722257423554789   0.277769706166041   0.124945004141409   1.0000000
B2   B   0.055532025554805   0.944417176314846   0.625015246475924   1.0000000
B2   B   0.388885150760040   0.944417176314846   0.625015246475924   1.0000000
B2   B   0.222135624826671   0.444489955165852   0.625133200050025   1.0000000
B2   B   0.555948889129403   0.444641111231366   0.624170148802809   1.0000000
B2   B   0.722227412360506   0.944454824721010   0.625002498563177   1.0000000
B2   B   0.888916157018482   0.444448182573288   0.625015246475924   1.0000000
B2   B   0.055532025554805   0.444448182573288   0.124984753524077   1.0000000
B2   B   0.222199607237469   0.944399214474937   0.125008938616975   1.0000000
B2   B   0.555563585805308   0.944448459569318   0.124995182742139   1.0000000
B2   B   0.388692222101963   0.444641111231366   0.125829851197191   1.0000000
B2   B   0.888884873764010   0.944448459569318   0.124995182742139   1.0000000
B2   B   0.722354330339181   0.444489955165852   0.124866799949974   1.0000000
B2   B   0.222199607237469   0.611133726095867   0.624991061383025   1.0000000
B2   B   0.055512282611253   0.111075909778547   0.625054995858591   1.0000000
B2   B   0.555614578207030   0.611229156414061   0.625166036645172   1.0000000
B2   B   0.388843378167476   0.110979002994154   0.625133200050025   1.0000000
B2   B   0.888934118858392   0.611133726095867   0.624991061383025   1.0000000
B2   B   0.055558191277433   0.611116382554866   0.125007370094618   1.0000000
B2   B   0.722227412360506   0.111105920972830   0.625002498563177   1.0000000
B2   B   0.222135624826671   0.110979002994154   0.124866799949974   1.0000000
B2   B   0.388843378167477   0.611197708506665   0.124866799949974   1.0000000
B2   B   0.722354330339181   0.611197708506665   0.124866799949974   1.0000000
B2   B   0.555563627167295   0.111075909778547   0.124945004141409   1.0000000
B2   B   0.388843378167477   0.611197708506665   0.625133200050025   1.0000000
B2   B   0.888878508612318   0.111105920972830   0.124997501436823   1.0000000
B2   B   0.222216950778469   0.777775142055903   0.624992629905381   1.0000000
B2   B   0.055512282611253   0.277769706166041   0.625054995858591   1.0000000
B2   B   0.388692222101963   0.277384444203933   0.624170148802809   1.0000000
B2   B   0.555563627167295   0.777821050722083   0.625054995858591   1.0000000
B2   B   0.888916157018482   0.777801307778531   0.625015246475924   1.0000000
B2   B   0.722257423554789   0.277769706166041   0.625054995858591   1.0000000
B2   B   0.055558191277433   0.777775142055903   0.125007370094618   1.0000000
B2   B   0.388885150760040   0.777801307778531   0.124984753524077   1.0000000
B2   B   0.222104176919275   0.277718755126305   0.124833963354829   1.0000000
B2   B   0.722257423554789   0.777821050722083   0.124945004141409   1.0000000
B2   B   0.555614578207030   0.277718755126305   0.124833963354829   1.0000000
B2   B   0.888884873764010   0.277769747528029   0.124995182742139   1.0000000
B2   B   0.055532025554805   0.444448182573288   0.625015246475924   1.0000000
B2   B   0.222199607237469   0.944399214474937   0.624991061383025   1.0000000
B2   B   0.555563585805308   0.944448459569318   0.625004817257861   1.0000000
B2   B   0.388692222101963   0.444641111231366   0.624170148802809   1.0000000
B2   B   0.888884873764010   0.944448459569318   0.625004817257861   1.0000000
B2   B   0.055532025554805   0.944417176314846   0.124984753524077   1.0000000
B2   B   0.722354330339181   0.444489955165852   0.625133200050025   1.0000000
B2   B   0.388885150760040   0.944417176314846   0.124984753524077   1.0000000
B2   B   0.222135624826671   0.444489955165852   0.124866799949974   1.0000000
B2   B   0.222199607237469   0.611133726095867   0.125008938616975   1.0000000
B2   B   0.555948889129403   0.444641111231366   0.125829851197191   1.0000000
B2   B   0.722227412360506   0.944454824721010   0.124997501436823   1.0000000
B2   B   0.888916157018482   0.444448182573288   0.124984753524077   1.0000000
B2   B   0.055558191277433   0.611116382554866   0.624992629905381   1.0000000
B2   B   0.222135624826671   0.110979002994154   0.625133200050025   1.0000000
B2   B   0.722354330339181   0.611197708506665   0.625133200050025   1.0000000
B2   B   0.555563627167295   0.111075909778547   0.625054995858591   1.0000000
B2   B   0.888878508612318   0.111105920972830   0.625002498563177   1.0000000


