data_1
_audit_creation_method   'vasp2cif'
_cell_length_a    14.93631414619966
_cell_length_b    14.936314146199727
_cell_length_c    13.341276283792837
_cell_angle_alpha    90.0
_cell_angle_beta    90.0
_cell_angle_gamma    119.99999999999984

_symmetry_space_group_name_H-M    'P 1'
loop_
_atom_site_label
_atom_site_type_symbol
_atom_site_fract_x
_atom_site_fract_y
_atom_site_fract_z
_atom_site_occupancy
Sb2   Sb   0.444444444444443   0.388888888888886   0.375000000000000   1.0000000
N2   N   0.110955010748823   0.055484935705753   0.124756502054143   1.0000000
N2   N   0.611167502300871   0.555626082285132   0.124672569552861   1.0000000
N2   N   0.444529924956930   0.055484935705753   0.124756502054143   1.0000000
N2   N   0.944512958521889   0.555540293479555   0.124839594702318   1.0000000
N2   N   0.777777777777779   0.055555555555557   0.124883580077841   1.0000000
N2   N   0.111111111111114   0.722222222222221   0.625135176738136   1.0000000
N2   N   0.444529924956930   0.722378322584513   0.625243497945856   1.0000000
N2   N   0.277707251048204   0.222165831032464   0.625327430447139   1.0000000
N2   N   0.777848397627583   0.722378322584513   0.625243497945856   1.0000000
N2   N   0.611189962782551   0.222143370550785   0.625153315072380   1.0000000
N2   N   0.944284418340140   0.222108582789278   0.625145623216129   1.0000000
N2   N   0.277793039853781   0.722305998375670   0.124839594702318   1.0000000
N2   N   0.110953407768240   0.222143370550785   0.124846684927620   1.0000000
N2   N   0.444458579984261   0.222165831032464   0.124672569552861   1.0000000
N2   N   0.611189962782551   0.722379925565095   0.124846684927620   1.0000000
N2   N   0.944512958521889   0.722305998375670   0.124839594702318   1.0000000
N2   N   0.777824164449137   0.222108582789278   0.124854376783871   1.0000000
N2   N   0.111027334957666   0.888820374811439   0.625160405297682   1.0000000
N2   N   0.444559264490085   0.888946298911706   0.625136199529690   1.0000000
N2   N   0.277707251048204   0.388874753349068   0.625327430447139   1.0000000
N2   N   0.611167502300871   0.388874753349068   0.625327430447139   1.0000000
N2   N   0.777824164449137   0.889048914993188   0.625145623216129   1.0000000
N2   N   0.944387034421622   0.388774068843244   0.625136199529690   1.0000000
N2   N   0.110955010748823   0.388803408376398   0.124756502054143   1.0000000
N2   N   0.277793039853781   0.888820374811439   0.124839594702318   1.0000000
N2   N   0.611224750544058   0.889048914993188   0.124854376783871   1.0000000
N2   N   0.444444444444443   0.388888888888886   0.118716669848298   1.0000000
N2   N   0.944387034421622   0.888946298911706   0.124863800470310   1.0000000
N2   N   0.777848397627583   0.388803408376398   0.124756502054143   1.0000000
N2   N   0.277739874547928   0.555593458785408   0.625170894771072   1.0000000
N2   N   0.110955010748823   0.055484935705753   0.625243497945856   1.0000000
N2   N   0.611167502300871   0.555626082285132   0.625327430447139   1.0000000
N2   N   0.444529924956930   0.055484935705753   0.625243497945856   1.0000000
N2   N   0.944512958521889   0.555540293479555   0.625160405297682   1.0000000
N2   N   0.111027334957666   0.555540293479555   0.124839594702318   1.0000000
N2   N   0.777777777777779   0.055555555555557   0.625116419922159   1.0000000
N2   N   0.277739874547928   0.055479749095856   0.124829105228928   1.0000000
N2   N   0.444458579984261   0.555626082285132   0.124672569552861   1.0000000
N2   N   0.777853584237480   0.555593458785408   0.124829105228928   1.0000000
N2   N   0.611224750544058   0.055509168884198   0.124854376783871   1.0000000
N2   N   0.444458579984261   0.555626082285132   0.625327430447139   1.0000000
N2   N   0.944284418340140   0.055509168884198   0.124854376783871   1.0000000
N2   N   0.277793039853781   0.722305998375670   0.625160405297682   1.0000000
N2   N   0.110953407768240   0.222143370550785   0.625153315072380   1.0000000
N2   N   0.444458579984261   0.222165831032464   0.625327430447139   1.0000000
N2   N   0.611189962782551   0.722379925565095   0.625153315072380   1.0000000
N2   N   0.944512958521889   0.722305998375670   0.625160405297682   1.0000000
N2   N   0.777824164449137   0.222108582789278   0.625145623216129   1.0000000
N2   N   0.111111111111114   0.722222222222221   0.124864823261864   1.0000000
N2   N   0.444529924956930   0.722378322584513   0.124756502054143   1.0000000
N2   N   0.277707251048204   0.222165831032464   0.124672569552861   1.0000000
N2   N   0.777848397627583   0.722378322584513   0.124756502054143   1.0000000
N2   N   0.611189962782551   0.222143370550785   0.124846684927620   1.0000000
N2   N   0.944284418340140   0.222108582789278   0.124854376783871   1.0000000
N2   N   0.110955010748823   0.388803408376398   0.625243497945856   1.0000000
N2   N   0.277793039853781   0.888820374811439   0.625160405297682   1.0000000
N2   N   0.611224750544058   0.889048914993188   0.625145623216129   1.0000000
N2   N   0.444444444444443   0.388888888888886   0.631283330151702   1.0000000
N2   N   0.944387034421622   0.888946298911706   0.625136199529690   1.0000000
N2   N   0.111027334957666   0.888820374811439   0.124839594702318   1.0000000
N2   N   0.777848397627583   0.388803408376398   0.625243497945856   1.0000000
N2   N   0.444559264490085   0.888946298911706   0.124863800470310   1.0000000
N2   N   0.277707251048204   0.388874753349068   0.124672569552861   1.0000000
N2   N   0.277739874547928   0.555593458785408   0.124829105228928   1.0000000
N2   N   0.611167502300871   0.388874753349068   0.124672569552861   1.0000000
N2   N   0.777824164449137   0.889048914993188   0.124854376783871   1.0000000
N2   N   0.944387034421622   0.388774068843244   0.124863800470310   1.0000000
N2   N   0.111027334957666   0.555540293479555   0.625160405297682   1.0000000
N2   N   0.277739874547928   0.055479749095856   0.625170894771072   1.0000000
N2   N   0.777853584237480   0.555593458785408   0.625170894771072   1.0000000
N2   N   0.611224750544058   0.055509168884198   0.625145623216129   1.0000000
N2   N   0.944284418340140   0.055509168884198   0.625145623216129   1.0000000
N2   N   0.052207054983434   0.109277737861412   0.375000000000000   1.0000000
N2   N   0.556454514840066   0.612909029680132   0.375000000000000   1.0000000
N2   N   0.388592369069983   0.099534630353176   0.375000000000000   1.0000000
N2   N   0.890865438296724   0.612099385815034   0.375000000000000   1.0000000
N2   N   0.723310407222487   0.110022926110849   0.375000000000000   1.0000000
N2   N   0.055559833226372   0.777773500106963   0.875000000000000   1.0000000
N2   N   0.388906737346906   0.777818132407778   0.875000000000000   1.0000000
N2   N   0.222167136432463   0.277750234882900   0.875000000000000   1.0000000
N2   N   0.722259891413128   0.777841761234530   0.875000000000000   1.0000000
N2   N   0.555583098450436   0.277750234882900   0.875000000000000   1.0000000
N2   N   0.888872280112182   0.277744560224371   0.875000000000000   1.0000000
N2   N   0.221126031021910   0.777229682177623   0.375000000000000   1.0000000
N2   N   0.052207054983434   0.276262650455358   0.375000000000000   1.0000000
N2   N   0.369375232904482   0.238750465808971   0.375000000000000   1.0000000
N2   N   0.557070682877978   0.781126278349902   0.375000000000000   1.0000000
N2   N   0.892617819691973   0.781237084710036   0.375000000000000   1.0000000
N2   N   0.724055595471924   0.276262650455358   0.375000000000000   1.0000000
N2   N   0.055515200925558   0.944421938272464   0.875000000000000   1.0000000
N2   N   0.388906737346906   0.944421938272464   0.875000000000000   1.0000000
N2   N   0.222172084806140   0.444438058436320   0.875000000000000   1.0000000
N2   N   0.555592266747938   0.444462800040633   0.875000000000000   1.0000000
N2   N   0.722240296671694   0.944480593343387   0.875000000000000   1.0000000
N2   N   0.888911395060865   0.444426595986423   0.875000000000000   1.0000000
N2   N   0.052096248623300   0.444714068315273   0.375000000000000   1.0000000
N2   N   0.221233947518302   0.942467895036604   0.375000000000000   1.0000000
N2   N   0.557056987825695   0.945195160579512   0.375000000000000   1.0000000
N2   N   0.369375232904482   0.463958100428847   0.375000000000000   1.0000000
N2   N   0.888138172753817   0.945195160579512   0.375000000000000   1.0000000
N2   N   0.733798702980160   0.444740964263346   0.375000000000000   1.0000000
N2   N   0.222199315518449   0.611134017814887   0.875000000000000   1.0000000
N2   N   0.055491572098805   0.111073441920208   0.875000000000000   1.0000000
N2   N   0.555583098450436   0.611166196900872   0.875000000000000   1.0000000
N2   N   0.388895274897008   0.111067359703156   0.875000000000000   1.0000000
N2   N   0.888934702296431   0.611134017814887   0.875000000000000   1.0000000
N2   N   0.056103651155713   0.612207302311426   0.375000000000000   1.0000000
N2   N   0.722240296671694   0.111093036661642   0.875000000000000   1.0000000
N2   N   0.210942261283186   0.099534630353176   0.375000000000000   1.0000000
N2   N   0.388592369069983   0.622391072050150   0.375000000000000   1.0000000
N2   N   0.733798702980160   0.622391072050150   0.375000000000000   1.0000000
N2   N   0.557070682877978   0.109277737861412   0.375000000000000   1.0000000
N2   N   0.388895274897008   0.611161248527195   0.875000000000000   1.0000000
N2   N   0.886712518888356   0.110022926110849   0.375000000000000   1.0000000
N2   N   0.222213666880591   0.777773500106963   0.875000000000000   1.0000000
N2   N   0.055491572098805   0.277751463511933   0.875000000000000   1.0000000
N2   N   0.388870533292695   0.277741066585398   0.875000000000000   1.0000000
N2   N   0.555581869821403   0.777841761234530   0.875000000000000   1.0000000
N2   N   0.888911395060865   0.777818132407778   0.875000000000000   1.0000000
N2   N   0.722259891413128   0.277751463511933   0.875000000000000   1.0000000
N2   N   0.056103651155713   0.777229682177623   0.375000000000000   1.0000000
N2   N   0.388619265018055   0.781237084710036   0.375000000000000   1.0000000
N2   N   0.220424303653204   0.276878818493270   0.375000000000000   1.0000000
N2   N   0.724055595471924   0.781126278349902   0.375000000000000   1.0000000
N2   N   0.556454514840066   0.276878818493270   0.375000000000000   1.0000000
N2   N   0.888138172753817   0.276276345507641   0.375000000000000   1.0000000
N2   N   0.055515200925558   0.444426595986423   0.875000000000000   1.0000000
N2   N   0.222199315518449   0.944398631036897   0.875000000000000   1.0000000
N2   N   0.555588773108965   0.944461053221147   0.875000000000000   1.0000000
N2   N   0.388870533292695   0.444462800040633   0.875000000000000   1.0000000
N2   N   0.888872280112182   0.944461053221147   0.875000000000000   1.0000000
N2   N   0.052096248623300   0.940715513641356   0.375000000000000   1.0000000
N2   N   0.722265973630180   0.444438058436320   0.875000000000000   1.0000000
N2   N   0.388619265018055   0.940715513641356   0.375000000000000   1.0000000
N2   N   0.210942261283186   0.444740964263346   0.375000000000000   1.0000000
N2   N   0.221233947518302   0.612099385815034   0.375000000000000   1.0000000
N2   N   0.594582867524364   0.463958100428846   0.375000000000000   1.0000000
N2   N   0.723310407222487   0.946620814444973   0.375000000000000   1.0000000
N2   N   0.892617819691973   0.444714068315273   0.375000000000000   1.0000000
N2   N   0.055559833226372   0.611119666452745   0.875000000000000   1.0000000
N2   N   0.222172084806140   0.111067359703156   0.875000000000000   1.0000000
N2   N   0.722265973630180   0.611161248527195   0.875000000000000   1.0000000
N2   N   0.555581869821403   0.111073441920208   0.875000000000000   1.0000000
N2   N   0.888852739989941   0.111093036661642   0.875000000000000   1.0000000
B2   B   0.103119181718627   0.049934850999436   0.375000000000000   1.0000000
B2   B   0.624730043144264   0.566038916391411   0.375000000000000   1.0000000
B2   B   0.446815669280809   0.049934850999436   0.375000000000000   1.0000000
B2   B   0.945302224046580   0.556106288881624   0.375000000000000   1.0000000
B2   B   0.777777777777779   0.055555555555557   0.375000000000000   1.0000000
B2   B   0.111111111111114   0.722222222222221   0.875000000000000   1.0000000
B2   B   0.444389290924185   0.722112871735897   0.875000000000000   1.0000000
B2   B   0.277920582622823   0.222324924107534   0.875000000000000   1.0000000
B2   B   0.777723580811713   0.722112871735897   0.875000000000000   1.0000000
B2   B   0.611033045885315   0.222300287448021   0.875000000000000   1.0000000
B2   B   0.944531165172575   0.222291434861556   0.875000000000000   1.0000000
B2   B   0.277227044451712   0.722529268498292   0.375000000000000   1.0000000
B2   B   0.109943388476471   0.221638360904900   0.375000000000000   1.0000000
B2   B   0.441308873247148   0.208603290189072   0.375000000000000   1.0000000
B2   B   0.611694972428436   0.723389944856865   0.375000000000000   1.0000000
B2   B   0.945302224046580   0.722529268498292   0.375000000000000   1.0000000
B2   B   0.777748802602414   0.220865699544234   0.375000000000000   1.0000000
B2   B   0.111149653312561   0.888910354862673   0.875000000000000   1.0000000
B2   B   0.444371929376885   0.888852631355107   0.875000000000000   1.0000000
B2   B   0.277920582622823   0.388928991848618   0.875000000000000   1.0000000
B2   B   0.611008409225802   0.388928991848618   0.875000000000000   1.0000000
B2   B   0.777760269688981   0.888802168160753   0.875000000000000   1.0000000
B2   B   0.944480701978222   0.388961403956444   0.875000000000000   1.0000000
B2   B   0.103119181718627   0.386517664052520   0.375000000000000   1.0000000
B2   B   0.277227044451712   0.888031109286749   0.375000000000000   1.0000000
B2   B   0.612467633789102   0.890216436391508   0.375000000000000   1.0000000
B2   B   0.944351870602479   0.888981462730849   0.375000000000000   1.0000000
B2   B   0.783398482333900   0.386517664052520   0.375000000000000   1.0000000
B2   B   0.277816334936354   0.555516998396982   0.875000000000000   1.0000000
B2   B   0.111220461597438   0.055609752521623   0.875000000000000   1.0000000
B2   B   0.611008409225802   0.555412750710513   0.875000000000000   1.0000000
B2   B   0.444389290924185   0.055609752521623   0.875000000000000   1.0000000
B2   B   0.944422978470656   0.555572631783216   0.875000000000000   1.0000000
B2   B   0.110804064835044   0.556106288881624   0.375000000000000   1.0000000
B2   B   0.777777777777779   0.055555555555557   0.875000000000000   1.0000000
B2   B   0.275565146721801   0.051130293443603   0.375000000000000   1.0000000
B2   B   0.441308873247148   0.566038916391411   0.375000000000000   1.0000000
B2   B   0.782203039889733   0.557768186611534   0.375000000000000   1.0000000
B2   B   0.612467633789102   0.055584530730922   0.375000000000000   1.0000000
B2   B   0.444404341484710   0.555412750710513   0.875000000000000   1.0000000
B2   B   0.943116896941820   0.055584530730922   0.375000000000000   1.0000000
B2   B   0.277760701550119   0.722183680020775   0.875000000000000   1.0000000
B2   B   0.111267241562713   0.222300287448021   0.875000000000000   1.0000000
B2   B   0.444404341484710   0.222324924107534   0.875000000000000   1.0000000
B2   B   0.611033045885315   0.722066091770623   0.875000000000000   1.0000000
B2   B   0.944422978470656   0.722183680020775   0.875000000000000   1.0000000
B2   B   0.777760269688981   0.222291434861556   0.875000000000000   1.0000000
B2   B   0.111111111111114   0.722222222222221   0.375000000000000   1.0000000
B2   B   0.446815669280809   0.730214151614709   0.375000000000000   1.0000000
B2   B   0.267294416941924   0.208603290189072   0.375000000000000   1.0000000
B2   B   0.783398482333900   0.730214151614709   0.375000000000000   1.0000000
B2   B   0.611694972428436   0.221638360904900   0.375000000000000   1.0000000
B2   B   0.943116896941820   0.220865699544234   0.375000000000000   1.0000000
B2   B   0.111220461597438   0.388944042409144   0.875000000000000   1.0000000
B2   B   0.277760701550119   0.888910354862673   0.875000000000000   1.0000000
B2   B   0.611041898471779   0.888802168160753   0.875000000000000   1.0000000
B2   B   0.444444444444443   0.388888888888886   0.875000000000000   1.0000000
B2   B   0.944480701978222   0.888852631355107   0.875000000000000   1.0000000
B2   B   0.110804064835044   0.888031109286749   0.375000000000000   1.0000000
B2   B   0.777723580811713   0.388944042409144   0.875000000000000   1.0000000
B2   B   0.444629592128370   0.888981462730849   0.375000000000000   1.0000000
B2   B   0.267294416941924   0.392024460086181   0.375000000000000   1.0000000
B2   B   0.275565146721801   0.557768186611534   0.375000000000000   1.0000000
B2   B   0.624730043144264   0.392024460086181   0.375000000000000   1.0000000
B2   B   0.777748802602414   0.890216436391508   0.375000000000000   1.0000000
B2   B   0.944351870602479   0.388703741204958   0.375000000000000   1.0000000
B2   B   0.111149653312561   0.555572631783216   0.875000000000000   1.0000000
B2   B   0.277816334936354   0.055632669872708   0.875000000000000   1.0000000
B2   B   0.777700663460628   0.555516998396982   0.875000000000000   1.0000000
B2   B   0.611041898471779   0.055573063644355   0.875000000000000   1.0000000
B2   B   0.944531165172575   0.055573063644355   0.875000000000000   1.0000000
B2   B   0.055776027586774   0.111279326831991   0.125169401403799   1.0000000
B2   B   0.555356187556572   0.610712375113144   0.125516095508177   1.0000000
B2   B   0.388948686574096   0.111449039551730   0.125416592644959   1.0000000
B2   B   0.888650416061030   0.610991874697187   0.125225012619990   1.0000000
B2   B   0.722168594913949   0.111164738419387   0.125120022995788   1.0000000
B2   B   0.055497439739227   0.777835893594109   0.624839099110948   1.0000000
B2   B   0.388899508865683   0.777670770208434   0.624829800635150   1.0000000
B2   B   0.222620958220192   0.277977145776764   0.624483904491823   1.0000000
B2   B   0.722054006501345   0.777557305746562   0.624830598596200   1.0000000
B2   B   0.555356187556572   0.277977145776764   0.624483904491823   1.0000000
B2   B   0.888908828788960   0.277817657577928   0.624873989797528   1.0000000
B2   B   0.222338453854883   0.777835893594109   0.125160900889052   1.0000000
B2   B   0.055776027586774   0.277830034088119   0.125169401403799   1.0000000
B2   B   0.389239202786861   0.278478405573728   0.125536269702422   1.0000000
B2   B   0.555503299245217   0.777557305746562   0.125169401403799   1.0000000
B2   B   0.888771261342743   0.777670770208434   0.125170199364850   1.0000000
B2   B   0.722054006501345   0.277830034088119   0.125169401403799   1.0000000
B2   B   0.055662563124902   0.944562071990585   0.624829800635150   1.0000000
B2   B   0.388899508865683   0.944562071990585   0.624829800635150   1.0000000
B2   B   0.222500352977626   0.444384646759232   0.624583407355041   1.0000000
B2   B   0.554854927759607   0.444094130546468   0.624463730297578   1.0000000
B2   B   0.722168594913949   0.944337189827898   0.624879977004212   1.0000000
B2   B   0.888771261342743   0.444433824467645   0.624829800635150   1.0000000
B2   B   0.055662563124902   0.444433824467645   0.125170199364850   1.0000000
B2   B   0.222341458636149   0.944682917272298   0.125225012619990   1.0000000
B2   B   0.555515675755407   0.944424504544368   0.125126010202472   1.0000000
B2   B   0.389239202786861   0.444094130546468   0.125536269702422   1.0000000
B2   B   0.888908828788960   0.944424504544368   0.125126010202472   1.0000000
B2   B   0.721884293781606   0.444384646759232   0.125416592644959   1.0000000
B2   B   0.222341458636149   0.610991874697187   0.624774987380010   1.0000000
B2   B   0.055776027586774   0.111279326831991   0.624830598596200   1.0000000
B2   B   0.555356187556572   0.610712375113144   0.624483904491823   1.0000000
B2   B   0.388948686574096   0.111449039551730   0.624583407355041   1.0000000
B2   B   0.888650416061030   0.610991874697187   0.624774987380010   1.0000000
B2   B   0.055497439739227   0.610994879478453   0.125160900889052   1.0000000
B2   B   0.722168594913949   0.111164738419387   0.624879977004212   1.0000000
B2   B   0.222500352977626   0.111449039551730   0.125416592644959   1.0000000
B2   B   0.388948686574096   0.610832980355709   0.125416592644959   1.0000000
B2   B   0.721884293781606   0.610832980355709   0.125416592644959   1.0000000
B2   B   0.555503299245217   0.111279326831991   0.125169401403799   1.0000000
B2   B   0.388948686574096   0.610832980355709   0.624583407355041   1.0000000
B2   B   0.888996143505431   0.111164738419387   0.125120022995788   1.0000000
B2   B   0.222338453854883   0.777835893594109   0.624839099110948   1.0000000
B2   B   0.055776027586774   0.277830034088119   0.624830598596200   1.0000000
B2   B   0.389239202786861   0.278478405573728   0.624463730297578   1.0000000
B2   B   0.555503299245217   0.777557305746562   0.624830598596200   1.0000000
B2   B   0.888771261342743   0.777670770208434   0.624829800635150   1.0000000
B2   B   0.722054006501345   0.277830034088119   0.624830598596200   1.0000000
B2   B   0.055497439739227   0.777835893594109   0.125160900889052   1.0000000
B2   B   0.388899508865683   0.777670770208434   0.125170199364850   1.0000000
B2   B   0.222620958220192   0.277977145776764   0.125516095508177   1.0000000
B2   B   0.722054006501345   0.777557305746562   0.125169401403799   1.0000000
B2   B   0.555356187556572   0.277977145776764   0.125516095508177   1.0000000
B2   B   0.888908828788960   0.277817657577928   0.125126010202472   1.0000000
B2   B   0.055662563124902   0.444433824467645   0.624829800635150   1.0000000
B2   B   0.222341458636149   0.944682917272298   0.624774987380010   1.0000000
B2   B   0.555515675755407   0.944424504544368   0.624873989797528   1.0000000
B2   B   0.389239202786861   0.444094130546468   0.624463730297578   1.0000000
B2   B   0.888908828788960   0.944424504544368   0.624873989797528   1.0000000
B2   B   0.055662563124902   0.944562071990585   0.125170199364850   1.0000000
B2   B   0.721884293781606   0.444384646759232   0.624583407355041   1.0000000
B2   B   0.388899508865683   0.944562071990585   0.125170199364850   1.0000000
B2   B   0.222500352977626   0.444384646759232   0.125416592644959   1.0000000
B2   B   0.222341458636149   0.610991874697187   0.125225012619990   1.0000000
B2   B   0.554854927759607   0.444094130546468   0.125536269702422   1.0000000
B2   B   0.722168594913949   0.944337189827898   0.125120022995788   1.0000000
B2   B   0.888771261342743   0.444433824467645   0.125170199364850   1.0000000
B2   B   0.055497439739227   0.610994879478453   0.624839099110948   1.0000000
B2   B   0.222500352977626   0.111449039551730   0.624583407355041   1.0000000
B2   B   0.721884293781606   0.610832980355709   0.624583407355041   1.0000000
B2   B   0.555503299245217   0.111279326831991   0.624830598596200   1.0000000
B2   B   0.888996143505431   0.111164738419387   0.624879977004212   1.0000000


