data_1
_audit_creation_method   'vasp2cif'
_cell_length_a    17.52789999999977
_cell_length_b    17.52789999999977
_cell_length_c    15.0
_cell_angle_alpha    90.0
_cell_angle_beta    90.0
_cell_angle_gamma    119.99999999999916

_symmetry_space_group_name_H-M    'P 1'
loop_
_atom_site_label
_atom_site_type_symbol
_atom_site_fract_x
_atom_site_fract_y
_atom_site_fract_z
_atom_site_occupancy
Ga2   Ga   0.496438405528883   0.503562996388115   0.111201618544277   1.0000000
B2   B   0.905989076205504   0.953214369453843   0.111005880578519   1.0000000
B2   B   0.904587655910442   0.095414365285554   0.111026866966970   1.0000000
B2   B   0.904124461147983   0.238134526508922   0.111037227465460   1.0000000
B2   B   0.904200371188601   0.380938626577151   0.110992078928378   1.0000000
B2   B   0.905059654817811   0.523763023105334   0.111009760229151   1.0000000
B2   B   0.906395021421301   0.666952673580167   0.111070582860590   1.0000000
B2   B   0.907293672168899   0.810881419287156   0.111040476783855   1.0000000
B2   B   0.048243200428416   0.951758820767589   0.110993861522431   1.0000000
B2   B   0.046787651742160   0.094012944990493   0.111005880578519   1.0000000
B2   B   0.046387202223365   0.237138161650190   0.110985109192619   1.0000000
B2   B   0.046796996703171   0.380283330336402   0.111003940357286   1.0000000
B2   B   0.047923770215639   0.523198227672911   0.111000500482510   1.0000000
B2   B   0.048816848431842   0.666068553875405   0.111052682765897   1.0000000
B2   B   0.048902938477455   0.809041161428789   0.111043282813045   1.0000000
B2   B   0.190960859767214   0.951099082718550   0.111043282813045   1.0000000
B2   B   0.189120601908847   0.092708349027097   0.111040476783855   1.0000000
B2   B   0.187413900246501   0.234681939089253   0.110998694230481   1.0000000
B2   B   0.188652163197561   0.379023562274077   0.110989619119690   1.0000000
B2   B   0.190742229343486   0.522364590516727   0.111036553390922   1.0000000
B2   B   0.191872401327683   0.665432905356459   0.111023234821488   1.0000000
B2   B   0.191604698258252   0.808397322937750   0.111002002238532   1.0000000
B2   B   0.333933467321594   0.951185172764161   0.111052682765897   1.0000000
B2   B   0.333049347616831   0.093606999774696   0.111070582860590   1.0000000
B2   B   0.329560584663793   0.233393487326237   0.111002381141667   1.0000000
B2   B   0.327372259120885   0.375531339121699   0.111022398113125   1.0000000
B2   B   0.333822679690485   0.520248262062476   0.111110782774656   1.0000000
B2   B   0.335401885597945   0.664600135599053   0.111057102030509   1.0000000
B2   B   0.334569115840540   0.808129619868319   0.111023234821488   1.0000000
B2   B   0.476803793524087   0.952078250980364   0.111000500482510   1.0000000
B2   B   0.476238998091663   0.094942366378185   0.111009760229151   1.0000000
B2   B   0.475356478988282   0.237534468020264   0.111022089587289   1.0000000
B2   B   0.468706877635907   0.374363192718559   0.111175441844572   1.0000000
B2   B   0.479753759134523   0.666179341506513   0.111110782774656   1.0000000
B2   B   0.477637430680270   0.809259791852517   0.111036553390922   1.0000000
B2   B   0.619718690859600   0.953205024492832   0.111003940357286   1.0000000
B2   B   0.619063394618853   0.095801650007395   0.110992078928378   1.0000000
B2   B   0.618628074853297   0.238863072229610   0.110996955396104   1.0000000
B2   B   0.617728378403373   0.382273642792631   0.111021802808284   1.0000000
B2   B   0.625638828477444   0.531295143561093   0.111175441844572   1.0000000
B2   B   0.624470682074305   0.672629762076113   0.111022398113125   1.0000000
B2   B   0.620978458921926   0.811349857998442   0.110989619119690   1.0000000
B2   B   0.762863859545814   0.953614818972638   0.110985109192619   1.0000000
B2   B   0.761867494687082   0.095877560048015   0.111037227465460   1.0000000
B2   B   0.761434025641495   0.238567995554509   0.111031991449923   1.0000000
B2   B   0.761138948966393   0.381373946342707   0.110996955396104   1.0000000
B2   B   0.762467553175738   0.524645542208716   0.111022089587289   1.0000000
B2   B   0.766608533869766   0.670441436533204   0.111002381141667   1.0000000
B2   B   0.765320082106751   0.812588120949503   0.110998694230481   1.0000000
N2   N   0.953846642809247   0.905590040723510   0.110986054906926   1.0000000
N2   N   0.952244500519980   0.047756901398025   0.110997791895617   1.0000000
N2   N   0.951412928111180   0.190255772596827   0.111004459495767   1.0000000
N2   N   0.951526025168463   0.333128924111511   0.110990641207319   1.0000000
N2   N   0.952519069566604   0.476032567157614   0.110969439126403   1.0000000
N2   N   0.953705359629404   0.618979745442873   0.111053807408632   1.0000000
N2   N   0.954205910796105   0.762287340115875   0.111047021386229   1.0000000
N2   N   0.095980393684832   0.904021008233165   0.110996242036923   1.0000000
N2   N   0.094411361194489   0.046154759108758   0.110986054906926   1.0000000
N2   N   0.092779932707074   0.188312220178122   0.110979355539023   1.0000000
N2   N   0.093317697976799   0.331986033304396   0.110964511164848   1.0000000
N2   N   0.094988939118253   0.475379183111190   0.110991975777112   1.0000000
N2   N   0.096289391626736   0.618392006764320   0.111013003474175   1.0000000
N2   N   0.096458680531329   0.761254511079455   0.111009447530016   1.0000000
N2   N   0.238746890838550   0.903542721386670   0.111009447530016   1.0000000
N2   N   0.237714061802131   0.045795491121901   0.111047021386229   1.0000000
N2   N   0.234711704642381   0.186504388118940   0.110994801348418   1.0000000
N2   N   0.232723916706256   0.328427919937244   0.110967104824798   1.0000000
N2   N   0.236956865833361   0.474207822284593   0.111028166196365   1.0000000
N2   N   0.239257698323845   0.617831475687610   0.111021233936602   1.0000000
N2   N   0.239197151649678   0.760804250268328   0.110996452422066   1.0000000
N2   N   0.381609395153679   0.903712010291264   0.111013003474175   1.0000000
N2   N   0.381021656475127   0.046296042288602   0.111053807408632   1.0000000
N2   N   0.379719687228305   0.188023871536766   0.111021383616373   1.0000000
N2   N   0.374098324076364   0.326111677016768   0.110994846114406   1.0000000
N2   N   0.373902567235666   0.467772518660817   0.111067675945678   1.0000000
N2   N   0.382837825087217   0.617163576830782   0.111110247017987   1.0000000
N2   N   0.382169926230390   0.760743703594161   0.111021233936602   1.0000000
N2   N   0.524622218805808   0.905012462799744   0.110991975777112   1.0000000
N2   N   0.523968834759382   0.047482332351401   0.110969439126403   1.0000000
N2   N   0.523413376799457   0.190083493424864   0.110985812744906   1.0000000
N2   N   0.522182471703346   0.332602235496920   0.111041310984431   1.0000000
N2   N   0.532228883256180   0.626098834682333   0.111067675945678   1.0000000
N2   N   0.525793579632404   0.763044536084646   0.111028166196365   1.0000000
N2   N   0.668015368612601   0.906683703941200   0.110964511164848   1.0000000
N2   N   0.666872477805487   0.048475376749543   0.110990641207319   1.0000000
N2   N   0.666357673122070   0.191040269460429   0.110994433981628   1.0000000
N2   N   0.665913246109266   0.334088155807731   0.110968996356049   1.0000000
N2   N   0.667399166420076   0.477818930213649   0.111041310984431   1.0000000
N2   N   0.673889724900228   0.625903077841635   0.110994846114406   1.0000000
N2   N   0.671573481979751   0.767277485211750   0.110967104824798   1.0000000
N2   N   0.811689181739877   0.907221469210925   0.110979355539023   1.0000000
N2   N   0.809745629321171   0.048588473806825   0.111004459495767   1.0000000
N2   N   0.809071784319823   0.190929617598175   0.111038551857695   1.0000000
N2   N   0.808961132457570   0.333643728794927   0.110994433981628   1.0000000
N2   N   0.809917908493134   0.476588025117539   0.110985812744906   1.0000000
N2   N   0.811977530381232   0.620281714689694   0.111021383616373   1.0000000
N2   N   0.813497013799059   0.765289697275625   0.110994801348418   1.0000000


