data_1
_audit_creation_method   'vasp2cif'
_cell_length_a    17.52789999999977
_cell_length_b    17.52789999999977
_cell_length_c    15.0
_cell_angle_alpha    90.0
_cell_angle_beta    90.0
_cell_angle_gamma    119.99999999999916

_symmetry_space_group_name_H-M    'P 1'
loop_
_atom_site_label
_atom_site_type_symbol
_atom_site_fract_x
_atom_site_fract_y
_atom_site_fract_z
_atom_site_occupancy
B2   B   0.903755112294308   0.951543856926174   0.110996002518406   1.0000000
B2   B   0.904401146994777   0.094784660329132   0.111095969568611   1.0000000
B2   B   0.904977215555303   0.237985423569176   0.111120607869235   1.0000000
B2   B   0.905823234049418   0.381194713273631   0.111059990566895   1.0000000
B2   B   0.906607089534780   0.524370550289541   0.111009726977084   1.0000000
B2   B   0.905342596409793   0.667218717556813   0.111025044704404   1.0000000
B2   B   0.904118905003918   0.809157484487723   0.110991181695733   1.0000000
B2   B   0.046853543154948   0.952301223549426   0.111011245897305   1.0000000
B2   B   0.046865519005050   0.095191415333285   0.111126199355084   1.0000000
B2   B   0.047100663690490   0.238230270496521   0.111161921394198   1.0000000
B2   B   0.047615687473635   0.381475182763829   0.111129769100210   1.0000000
B2   B   0.048408455359506   0.524763782906640   0.111080172206528   1.0000000
B2   B   0.048157975081453   0.667764011244379   0.111058418677805   1.0000000
B2   B   0.047759552772582   0.810324042235463   0.110978466594575   1.0000000
B2   B   0.190475690489107   0.953395180352381   0.111019067456647   1.0000000
B2   B   0.189197346866326   0.095200147094649   0.111219697190011   1.0000000
B2   B   0.189745953640121   0.238989419104148   0.111309560228611   1.0000000
B2   B   0.189307867727843   0.381742088970433   0.111256543541627   1.0000000
B2   B   0.190242767606670   0.524992179668132   0.111038097448842   1.0000000
B2   B   0.190515465277072   0.668127189942670   0.111079217138010   1.0000000
B2   B   0.190789429929504   0.810953673414264   0.111064529362951   1.0000000
B2   B   0.333694535187805   0.953817830093262   0.111108498811017   1.0000000
B2   B   0.333235546968591   0.096479951753053   0.111093898137228   1.0000000
B2   B   0.331749255941568   0.239781463438058   0.110172909212500   1.0000000
B2   B   0.333370180106552   0.381068609552250   0.110240935463787   1.0000000
B2   B   0.332005164603380   0.526132639553051   0.111117996665215   1.0000000
B2   B   0.332480409080516   0.668457192385721   0.111039168439465   1.0000000
B2   B   0.333497603539863   0.811150363332285   0.111123404700876   1.0000000
B2   B   0.476587274960633   0.953000351568889   0.111028642128769   1.0000000
B2   B   0.476666926030412   0.095254604296351   0.111040867041918   1.0000000
B2   B   0.475042362937916   0.236645588700048   0.110933009031495   1.0000000
B2   B   0.473567993529314   0.667659151389889   0.111220387367260   1.0000000
B2   B   0.475989879940598   0.810363569387363   0.111077817386658   1.0000000
B2   B   0.619206274735629   0.952143777076818   0.111053363267235   1.0000000
B2   B   0.619661756188739   0.095097213490160   0.110955392802275   1.0000000
B2   B   0.619929316113239   0.237726864977109   0.110972737371292   1.0000000
B2   B   0.622338577948313   0.381355022383470   0.111065756407261   1.0000000
B2   B   0.623148961166685   0.522358939633993   0.111102399310038   1.0000000
B2   B   0.615982315468615   0.662956634930483   0.111277955569921   1.0000000
B2   B   0.618256500119248   0.808658511947731   0.111087551658547   1.0000000
B2   B   0.761433784096427   0.951533789449968   0.111057176332564   1.0000000
B2   B   0.762139251548485   0.094806805380304   0.111098340327656   1.0000000
B2   B   0.762679496061859   0.237809996977543   0.110959291899246   1.0000000
B2   B   0.763936772487196   0.380807033343248   0.110894047578048   1.0000000
B2   B   0.765277872808863   0.524000769070739   0.111008830764539   1.0000000
B2   B   0.761298588481679   0.665820468386268   0.111125429268315   1.0000000
B2   B   0.760100347729198   0.807651983924293   0.111061030095506   1.0000000
N2   N   0.951566260707501   0.904314722594801   0.110956113625965   1.0000000
N2   N   0.951454608435739   0.046893786308395   0.111026679537166   1.0000000
N2   N   0.951930282866939   0.190031867037349   0.111101958355828   1.0000000
N2   N   0.952743507305246   0.333289945752139   0.111114311663963   1.0000000
N2   N   0.953797356714126   0.476618470419288   0.111066524783947   1.0000000
N2   N   0.953427037056278   0.619873609865423   0.111033973512440   1.0000000
N2   N   0.952663703743508   0.762491275303751   0.110976693151315   1.0000000
N2   N   0.095025699734643   0.905275323349337   0.110954724456259   1.0000000
N2   N   0.093805575604874   0.047083819704521   0.111114045825981   1.0000000
N2   N   0.094027709895619   0.190422665806758   0.111216893304057   1.0000000
N2   N   0.094152201256747   0.333517055338443   0.111161840768655   1.0000000
N2   N   0.095299443190061   0.476908831622735   0.111066486731973   1.0000000
N2   N   0.095607974468280   0.620155712205616   0.111058719248764   1.0000000
N2   N   0.095627369528582   0.762998800218616   0.111017054282348   1.0000000
N2   N   0.238269089345624   0.905848459339079   0.111024527077689   1.0000000
N2   N   0.237413785171756   0.047937261661102   0.111082527054836   1.0000000
N2   N   0.234978483482879   0.189175630403884   0.111297687649445   1.0000000
N2   N   0.235938367137584   0.334718000712784   0.111344141998340   1.0000000
N2   N   0.236818056832063   0.477186687239694   0.111078965587628   1.0000000
N2   N   0.237516070769872   0.620455427898983   0.111006494885256   1.0000000
N2   N   0.238284490748891   0.763354555255016   0.111116517908568   1.0000000
N2   N   0.381305557158491   0.905993701710719   0.111095327088486   1.0000000
N2   N   0.381095816540873   0.048297304573591   0.111128753355391   1.0000000
N2   N   0.379553762128759   0.190418371713814   0.110809992491423   1.0000000
N2   N   0.369402386734594   0.328763113743305   0.108238614071286   1.0000000
N2   N   0.377781436893026   0.479220901408444   0.111020838867042   1.0000000
N2   N   0.379157993609720   0.621173620659251   0.111035612242405   1.0000000
N2   N   0.380813504045813   0.763559854368773   0.111059090998768   1.0000000
N2   N   0.524064727846567   0.905232608983019   0.111026047076444   1.0000000
N2   N   0.524478883480454   0.047549049541574   0.110936598088800   1.0000000
N2   N   0.524615175405875   0.189138835889198   0.111046116008577   1.0000000
N2   N   0.530524909660409   0.327022045106779   0.110934825937704   1.0000000
N2   N   0.519919143260122   0.620556353703697   0.111480424589551   1.0000000
N2   N   0.523257030542191   0.762656926340363   0.111110571071633   1.0000000
N2   N   0.666356463924261   0.904068564546053   0.111035859437384   1.0000000
N2   N   0.667091468042289   0.047181148091467   0.111034848129623   1.0000000
N2   N   0.667730096310514   0.189880900975796   0.110891346131758   1.0000000
N2   N   0.669759161296439   0.332523097994413   0.110959079082733   1.0000000
N2   N   0.672750275418725   0.476507907917523   0.111175813114921   1.0000000
N2   N   0.666230875446435   0.618306294002160   0.111198217892045   1.0000000
N2   N   0.664300546011835   0.759582000060471   0.111108162732665   1.0000000
N2   N   0.808320614120779   0.903377687078040   0.110994752037895   1.0000000
N2   N   0.809276910711189   0.046838107992210   0.111100682091969   1.0000000
N2   N   0.809996024838941   0.189952584843747   0.111063688567919   1.0000000
N2   N   0.811203338151769   0.332977558618897   0.110921683852658   1.0000000
N2   N   0.812624496353343   0.476306591305858   0.110856834311051   1.0000000
N2   N   0.810874790315623   0.619720111884762   0.111017199031438   1.0000000
N2   N   0.808882664881784   0.761317986549829   0.111043274637120   1.0000000
O2   O   0.472206044612693   0.526130039704093   0.111146204558412   1.0000000
O2   O   0.538633316472569   0.464080927567607   0.110900240883057   1.0000000


