data_1
_audit_creation_method   'vasp2cif'
_cell_length_a    17.52789999999977
_cell_length_b    17.52789999999977
_cell_length_c    15.0
_cell_angle_alpha    90.0
_cell_angle_beta    90.0
_cell_angle_gamma    119.99999999999916

_symmetry_space_group_name_H-M    'P 1'
loop_
_atom_site_label
_atom_site_type_symbol
_atom_site_fract_x
_atom_site_fract_y
_atom_site_fract_z
_atom_site_occupancy
B2   B   0.903837445869627   0.950658659918890   0.110160911687345   1.0000000
B2   B   0.905738266455922   0.094263502415079   0.110268407839978   1.0000000
B2   B   0.906397512203757   0.237250809729607   0.110613685561840   1.0000000
B2   B   0.906299136057498   0.380225448448122   0.111211547758967   1.0000000
B2   B   0.904795464630181   0.523071716194585   0.111646162849415   1.0000000
B2   B   0.902450187664934   0.665302818833125   0.111427900008866   1.0000000
B2   B   0.901365648303917   0.806641240063238   0.110562493453614   1.0000000
B2   B   0.047252529513895   0.952749192642105   0.110425957079090   1.0000000
B2   B   0.049343045848108   0.096164256322374   0.110160912877348   1.0000000
B2   B   0.049928028070395   0.238610236012862   0.110152142589363   1.0000000
B2   B   0.049044269978684   0.381244107484764   0.110879884216124   1.0000000
B2   B   0.047082124963796   0.524227337135205   0.111508996893422   1.0000000
B2   B   0.045921521500704   0.667091658803733   0.111488264527551   1.0000000
B2   B   0.045992361360339   0.809721842851179   0.110954952825888   1.0000000
B2   B   0.190279900168822   0.954009390678665   0.110954949289887   1.0000000
B2   B   0.193360470246765   0.098636095153082   0.110562491392614   1.0000000
B2   B   0.195001000108252   0.241540462979765   0.109849666544514   1.0000000
B2   B   0.193004922510323   0.382899736148863   0.110059080054375   1.0000000
B2   B   0.189040653202194   0.525485665416434   0.112106954541753   1.0000000
B2   B   0.188246024370766   0.668317868884037   0.112302578801848   1.0000000
B2   B   0.189017371869145   0.810984264468853   0.111622948679904   1.0000000
B2   B   0.332910008658268   0.954080119858295   0.111488261644552   1.0000000
B2   B   0.334698933013876   0.097551552084062   0.111427899004869   1.0000000
B2   B   0.340948865242790   0.245396141424368   0.111253276672074   1.0000000
B2   B   0.340736999587604   0.385811596612978   0.107934144945550   1.0000000
B2   B   0.330466107831322   0.529477941363296   0.110846632516706   1.0000000
B2   B   0.329799001377138   0.670202821234861   0.112764871619721   1.0000000
B2   B   0.331683783141956   0.811755660216231   0.112302577019849   1.0000000
B2   B   0.475774306780795   0.952919466487206   0.111509002189423   1.0000000
B2   B   0.476930004226412   0.095206204594819   0.111646176869418   1.0000000
B2   B   0.478737580072830   0.238132661466503   0.112808971617171   1.0000000
B2   B   0.494963685459896   0.392397977961632   0.113958389894690   1.0000000
B2   B   0.470523787625703   0.669535654419674   0.110846632187703   1.0000000
B2   B   0.474516121594568   0.810961176626802   0.112106954516749   1.0000000
B2   B   0.618757637405235   0.950957457745321   0.110879886949127   1.0000000
B2   B   0.619776209588878   0.093702477848503   0.111211554976966   1.0000000
B2   B   0.620725468392749   0.235795852648160   0.112396464564383   1.0000000
B2   B   0.622772096744258   0.377229702534739   0.114295693904048   1.0000000
B2   B   0.607603756103370   0.505037950251105   0.113958389720685   1.0000000
B2   B   0.614190061013023   0.659264598346391   0.107934142531552   1.0000000
B2   B   0.617101988581134   0.806996841102678   0.110059078219377   1.0000000
B2   B   0.761391486589131   0.950073720179604   0.110152144943362   1.0000000
B2   B   0.762750891173392   0.093604176804246   0.110613685065838   1.0000000
B2   B   0.763506747955206   0.236494875275794   0.111247905166481   1.0000000
B2   B   0.764205879731839   0.379276256234248   0.112396457987386   1.0000000
B2   B   0.761869207628498   0.521264191912175   0.112808964383171   1.0000000
B2   B   0.754605647653630   0.659052827314209   0.111253278231068   1.0000000
B2   B   0.758461192689231   0.805000663593749   0.109849667564520   1.0000000
N2   N   0.950798658964512   0.902889115305149   0.110285280447838   1.0000000
N2   N   0.953217616217683   0.046784103911317   0.110159342318718   1.0000000
N2   N   0.954426640264526   0.190033721849549   0.110298643297285   1.0000000
N2   N   0.954188037069633   0.332798767593915   0.110811938620715   1.0000000
N2   N   0.952566853772005   0.475648122098117   0.111316696151591   1.0000000
N2   N   0.950782871344786   0.618419446615271   0.111452133187464   1.0000000
N2   N   0.950082631697200   0.760590443505132   0.110925924909633   1.0000000
N2   N   0.094646288803992   0.905355476769012   0.110718340614897   1.0000000
N2   N   0.097112599613852   0.049203067528485   0.110285290954839   1.0000000
N2   N   0.098992160018875   0.192557942990808   0.110014957354871   1.0000000
N2   N   0.098166237097063   0.334505417599455   0.110292173283303   1.0000000
N2   N   0.095067899557285   0.476714884879733   0.111457795348230   1.0000000
N2   N   0.093692529139802   0.619593660633300   0.111749169966333   1.0000000
N2   N   0.093734032647302   0.762446307666723   0.111333095844577   1.0000000
N2   N   0.237555359960272   0.906267619731697   0.111333094921574   1.0000000
N2   N   0.239411299666867   0.049919145657796   0.110925914702630   1.0000000
N2   N   0.244097060736209   0.195989372846220   0.110416585795094   1.0000000
N2   N   0.245086294871402   0.338800642981763   0.108899781151056   1.0000000
N2   N   0.237927676041831   0.478474785629534   0.111568163052416   1.0000000
N2   N   0.235919029976580   0.620650603879614   0.112709302538425   1.0000000
N2   N   0.236618178354095   0.763383471088905   0.112195133304006   1.0000000
N2   N   0.380407982957699   0.906309094079197   0.111749160682332   1.0000000
N2   N   0.381582258698728   0.049218759507217   0.111452138747468   1.0000000
N2   N   0.383974579615809   0.193637493952790   0.111926038325337   1.0000000
N2   N   0.394355583059292   0.345332325322335   0.111054154821831   1.0000000
N2   N   0.384289839875631   0.486468348663520   0.105849579574298   1.0000000
N2   N   0.377533043395413   0.622468711439584   0.111986590376175   1.0000000
N2   N   0.379351194893386   0.764082828878420   0.112709309420423   1.0000000
N2   N   0.523286891437274   0.904933903505715   0.111457800616229   1.0000000
N2   N   0.524353534722882   0.047434690333994   0.111316714148587   1.0000000
N2   N   0.525503744561813   0.189967982667011   0.112268998636804   1.0000000
N2   N   0.528144017556766   0.332854446816521   0.114253258483776   1.0000000
N2   N   0.469217374976422   0.530784163766578   0.100203764308482   1.0000000
N2   N   0.513533198110482   0.615711660087368   0.105849583107295   1.0000000
N2   N   0.521526950672469   0.762074137041173   0.111568158025419   1.0000000
N2   N   0.665496337626540   0.901835547058942   0.110292171988303   1.0000000
N2   N   0.667202944896083   0.045813637312365   0.110811941331713   1.0000000
N2   N   0.668178626855278   0.188553433750789   0.111506364762281   1.0000000
N2   N   0.669439234648671   0.330562523520328   0.113271686289941   1.0000000
N2   N   0.667147488150481   0.471857757470236   0.114253253640773   1.0000000
N2   N   0.654669469866666   0.605646065090712   0.111054156129834   1.0000000
N2   N   0.661200960397234   0.754915354990606   0.108899776366055   1.0000000
N2   N   0.807443740267190   0.901009548068123   0.110014959027872   1.0000000
N2   N   0.809968047985453   0.045575142897480   0.110298646763284   1.0000000
N2   N   0.811058151216573   0.188943506214426   0.110747520950347   1.0000000
N2   N   0.811448194573212   0.331823016405723   0.111506359246280   1.0000000
N2   N   0.810033742373992   0.474497973473188   0.112268979307803   1.0000000
N2   N   0.806364339596209   0.616027171430191   0.111926037695335   1.0000000
N2   N   0.804012354997780   0.755904632926793   0.110416590547090   1.0000000


