data_1
_audit_creation_method   'vasp2cif'
_cell_length_a    17.52789999999977
_cell_length_b    17.52789999999977
_cell_length_c    15.0
_cell_angle_alpha    90.0
_cell_angle_beta    90.0
_cell_angle_gamma    119.99999999999916

_symmetry_space_group_name_H-M    'P 1'
loop_
_atom_site_label
_atom_site_type_symbol
_atom_site_fract_x
_atom_site_fract_y
_atom_site_fract_z
_atom_site_occupancy
B2   B   0.905268260268680   0.953055074469921   0.111620876311444   1.0000000
B2   B   0.904497581809789   0.095504439386221   0.109572705153344   1.0000000
B2   B   0.904221226820663   0.238316364232520   0.109707539577408   1.0000000
B2   B   0.904256101085790   0.381190233816534   0.111110741117207   1.0000000
B2   B   0.904604701876807   0.524036655014893   0.112856690314196   1.0000000
B2   B   0.905230309147352   0.667034252230068   0.113053472944688   1.0000000
B2   B   0.905610137048699   0.810228956447485   0.113689186582987   1.0000000
B2   B   0.047701383822186   0.952300637373810   0.112762932876328   1.0000000
B2   B   0.046946946726082   0.094733760927300   0.111620876311444   1.0000000
B2   B   0.046680080557904   0.237782364620993   0.111301496210012   1.0000000
B2   B   0.046848032557821   0.380900134435301   0.111591432142660   1.0000000
B2   B   0.047361785861880   0.523836382927551   0.111419807429582   1.0000000
B2   B   0.047823589295890   0.666689121443845   0.111677759074671   1.0000000
B2   B   0.047935574249847   0.809564657399304   0.112407882781309   1.0000000
B2   B   0.190437363796686   0.952066446946157   0.112407882781309   1.0000000
B2   B   0.189773064748532   0.094391884147298   0.113689186582987   1.0000000
B2   B   0.188306087894064   0.236237683233345   0.114461236453208   1.0000000
B2   B   0.188844660725526   0.380126218074642   0.116808811371214   1.0000000
B2   B   0.189993932708713   0.523531910316173   0.115015075556243   1.0000000
B2   B   0.190707406425521   0.666495555334275   0.111540647230381   1.0000000
B2   B   0.190644764940745   0.809357256255251   0.110781627102585   1.0000000
B2   B   0.333312899753162   0.952178431900112   0.111677759074671   1.0000000
B2   B   0.332967768966945   0.094771712048651   0.113053472944688   1.0000000
B2   B   0.331663604945824   0.236404877772721   0.112380960430208   1.0000000
B2   B   0.328682251864451   0.377175982630212   0.116410052492191   1.0000000
B2   B   0.332277972314643   0.522567392071558   0.122308752951162   1.0000000
B2   B   0.333795844057637   0.666206177139361   0.116529934094030   1.0000000
B2   B   0.333506465862717   0.809294614770482   0.111540647230381   1.0000000
B2   B   0.476165638269448   0.952640235334123   0.111419807429582   1.0000000
B2   B   0.475965366182096   0.095397319319175   0.112856690314196   1.0000000
B2   B   0.475605837090251   0.238035260266852   0.112304394811446   1.0000000
B2   B   0.472515293986885   0.376762068096585   0.091852817311201   1.0000000
B2   B   0.477434629125433   0.667724048882357   0.122308752951162   1.0000000
B2   B   0.476470110880827   0.810008088487282   0.115015075556243   1.0000000
B2   B   0.619101886760702   0.953153988638191   0.111591432142660   1.0000000
B2   B   0.618811787379490   0.095745920110207   0.111110741117207   1.0000000
B2   B   0.618659760924616   0.238550086467612   0.112654601363157   1.0000000
B2   B   0.618609705281078   0.381392315914932   0.109332672336049   1.0000000
B2   B   0.623239953099425   0.527486727210112   0.091852817311201   1.0000000
B2   B   0.622826038565792   0.671319769332540   0.116410052492191   1.0000000
B2   B   0.619875803121369   0.811157360470470   0.116808811371214   1.0000000
B2   B   0.762219656574996   0.953321940638108   0.111301496210012   1.0000000
B2   B   0.761685656963483   0.095780794375348   0.109707539577408   1.0000000
B2   B   0.761479787520421   0.238522233675583   0.110792876788972   1.0000000
B2   B   0.761451934728384   0.381342260271396   0.112654601363157   1.0000000
B2   B   0.761966760929166   0.524396184106755   0.112304394811446   1.0000000
B2   B   0.763597143423269   0.668338416251188   0.112380960430208   1.0000000
B2   B   0.763764337962664   0.811695933301940   0.114461236453208   1.0000000
N2   N   0.952744178322604   0.905223642061717   0.112811625421595   1.0000000
N2   N   0.952153401939421   0.047847999978577   0.110335921810485   1.0000000
N2   N   0.951712167644913   0.190560471795658   0.109526559531007   1.0000000
N2   N   0.951725159651162   0.333479833246286   0.110282071766396   1.0000000
N2   N   0.952079286584136   0.476364741763264   0.111689842843733   1.0000000
N2   N   0.952556665200775   0.619225246131996   0.112834911828537   1.0000000
N2   N   0.952806050289998   0.762210396204064   0.113366339509062   1.0000000
N2   N   0.095321962593423   0.904679439324584   0.112579687985570   1.0000000
N2   N   0.094777759856283   0.047257223595403   0.112811625421595   1.0000000
N2   N   0.093737622304579   0.189533072865962   0.112078650598610   1.0000000
N2   N   0.094011286544624   0.332936281906218   0.112789183871087   1.0000000
N2   N   0.094791361327034   0.476113240274581   0.111985018353678   1.0000000
N2   N   0.095365557008705   0.619029613851681   0.111132746227688   1.0000000
N2   N   0.095445681542383   0.761866348440580   0.111285581221510   1.0000000
N2   N   0.238135053477419   0.904555720375616   0.111285581221510   1.0000000
N2   N   0.237791005713956   0.047195351628007   0.113366339509062   1.0000000
N2   N   0.236687457336829   0.189303085679242   0.114438739627966   1.0000000
N2   N   0.234676545185092   0.330775395814031   0.117372172099826   1.0000000
N2   N   0.237022397008791   0.475500543031682   0.119209467975126   1.0000000
N2   N   0.238343458057254   0.618814016457942   0.113890363746917   1.0000000
N2   N   0.238272591351457   0.761728810566568   0.110595256895198   1.0000000
N2   N   0.380971788066303   0.904635844909287   0.111132746227688   1.0000000
N2   N   0.380776155786024   0.047444736717222   0.112834911828537   1.0000000
N2   N   0.380311589892952   0.189978304310098   0.112261751262155   1.0000000
N2   N   0.378181102969582   0.331381479920835   0.108576842327012   1.0000000
N2   N   0.375587147170629   0.471049498841423   0.122855245488747   1.0000000
N2   N   0.381568975589255   0.618432426328737   0.121707671093004   1.0000000
N2   N   0.381187385460050   0.761657943860759   0.113890363746917   1.0000000
N2   N   0.523888161642414   0.905210040590972   0.111985018353678   1.0000000
N2   N   0.523636660153733   0.047922115333870   0.111689842843733   1.0000000
N2   N   0.523441354783031   0.190754237407753   0.113591761564909   1.0000000
N2   N   0.523213086654337   0.333652744850758   0.108512113254701   1.0000000
N2   N   0.528951903075572   0.624414254747369   0.122855245488747   1.0000000
N2   N   0.524500858885298   0.762979004909209   0.119209467975126   1.0000000
N2   N   0.667065120010793   0.905990115373368   0.112789183871087   1.0000000
N2   N   0.666521568670711   0.048276242266837   0.110282071766396   1.0000000
N2   N   0.666285515421478   0.190976118977319   0.111518278131216   1.0000000
N2   N   0.666153029501755   0.333848372415250   0.112555533162570   1.0000000
N2   N   0.666348657066226   0.476788315262681   0.108512113254701   1.0000000
N2   N   0.668619921996174   0.621820298948409   0.108576842327005   1.0000000
N2   N   0.669226006102972   0.765324856732914   0.117372172099826   1.0000000
N2   N   0.810468329052043   0.906263779613419   0.112078650598610   1.0000000
N2   N   0.809440930122334   0.048289234273100   0.109526559531007   1.0000000
N2   N   0.809088941007516   0.190912460910490   0.109607254699070   1.0000000
N2   N   0.809025282940687   0.333715886495526   0.111518278131216   1.0000000
N2   N   0.809247164510239   0.476560047133964   0.113591761564909   1.0000000
N2   N   0.810023097607893   0.619689812025053   0.112261751262155   1.0000000
N2   N   0.810698316238749   0.763313944581184   0.114438739627966   1.0000000
Si2   Si   0.485521754889630   0.514480266307376   0.099234498819520   1.0000000
Si2   Si   0.528630523179524   0.471370878737457   0.977204424967253   1.0000000


