data_1
_audit_creation_method   'vasp2cif'
_cell_length_a    14.93631414619966
_cell_length_b    14.936314146199727
_cell_length_c    13.341276283792837
_cell_angle_alpha    90.0
_cell_angle_beta    90.0
_cell_angle_gamma    119.99999999999984

_symmetry_space_group_name_H-M    'P 1'
loop_
_atom_site_label
_atom_site_type_symbol
_atom_site_fract_x
_atom_site_fract_y
_atom_site_fract_z
_atom_site_occupancy
P2   P   0.514934050196177   0.424133691764753   0.375000000000000   1.0000000
N2   N   0.111023253701606   0.055509543813169   0.124938539444591   1.0000000
N2   N   0.611102806659784   0.555647570142845   0.125096301117261   1.0000000
N2   N   0.444483347058135   0.055572365149179   0.124889944331973   1.0000000
N2   N   0.944404751522316   0.555527483239595   0.124793741587432   1.0000000
N2   N   0.777792434467618   0.055562883900478   0.124815943492072   1.0000000
N2   N   0.111104908152134   0.722219120742733   0.625143328575305   1.0000000
N2   N   0.444483347058135   0.722244315242284   0.625110055668025   1.0000000
N2   N   0.277573093953648   0.222109142697477   0.625516469968967   1.0000000
N2   N   0.777744553074404   0.722246531672679   0.625340777062375   1.0000000
N2   N   0.611130004540089   0.222181072534485   0.625355349463366   1.0000000
N2   N   0.944395384744295   0.222191238083432   0.625149774800533   1.0000000
N2   N   0.277807946844397   0.722232928612916   0.124860069520791   1.0000000
N2   N   0.110974916772502   0.222154125052913   0.124890902976806   1.0000000
N2   N   0.444421718891838   0.222207622607981   0.124689928940366   1.0000000
N2   N   0.611130004540089   0.722282265338920   0.124644650536634   1.0000000
N2   N   0.944404751522316   0.722210601616060   0.124793741587432   1.0000000
N2   N   0.777785934801038   0.222191138969735   0.124794428160995   1.0000000
N2   N   0.111093978803299   0.888888292242939   0.625124017258351   1.0000000
N2   N   0.444499219839243   0.888916276586274   0.625136796739078   1.0000000
N2   N   0.277573093953648   0.388797284589495   0.625516469968967   1.0000000
N2   N   0.611102806659784   0.388788569850264   0.624903698882742   1.0000000
N2   N   0.777785934801038   0.888928129164636   0.625205571839014   1.0000000
N2   N   0.944404581999085   0.388858382985165   0.625168450266613   1.0000000
N2   N   0.111023253701606   0.388847043221768   0.124938539444591   1.0000000
N2   N   0.277807946844397   0.888908351564811   0.124860069520791   1.0000000
N2   N   0.611156406400199   0.888930879590738   0.124823157982005   1.0000000
N2   N   0.443947644122049   0.388640488727687   0.122855747604931   1.0000000
N2   N   0.944404581999085   0.888879532347269   0.124831549733374   1.0000000
N2   N   0.777744553074404   0.388831354735061   0.124659222937626   1.0000000
N2   N   0.277767757227915   0.555546322312118   0.625120760806124   1.0000000
N2   N   0.111023253701606   0.055509543813169   0.625061460555410   1.0000000
N2   N   0.611102806659784   0.555647570142845   0.624903698882742   1.0000000
N2   N   0.444483347058135   0.055572365149179   0.625110055668025   1.0000000
N2   N   0.944404751522316   0.555527483239595   0.625206258412560   1.0000000
N2   N   0.111093978803299   0.555539019893686   0.124875982741651   1.0000000
N2   N   0.777792434467618   0.055562883900478   0.625184056507919   1.0000000
N2   N   0.277767757227915   0.055554768249146   0.124879239193867   1.0000000
N2   N   0.444421718891838   0.555547429617195   0.124689928940366   1.0000000
N2   N   0.777733665886755   0.555533499610050   0.124935044810658   1.0000000
N2   N   0.611156406400199   0.055558860142795   0.124823157982005   1.0000000
N2   N   0.444421718891838   0.555547429617195   0.625310071059636   1.0000000
N2   N   0.944395384744295   0.055537479994206   0.124850225199476   1.0000000
N2   N   0.277807946844397   0.722232928612916   0.625139930479209   1.0000000
N2   N   0.110974916772502   0.222154125052913   0.625109097023194   1.0000000
N2   N   0.444421718891838   0.222207622607981   0.625310071059636   1.0000000
N2   N   0.611130004540089   0.722282265338920   0.625355349463366   1.0000000
N2   N   0.944404751522316   0.722210601616060   0.625206258412560   1.0000000
N2   N   0.777785934801038   0.222191138969735   0.625205571839014   1.0000000
N2   N   0.111104908152134   0.722219120742733   0.124856671424697   1.0000000
N2   N   0.444483347058135   0.722244315242284   0.124889944331973   1.0000000
N2   N   0.277573093953648   0.222109142697477   0.124483530031036   1.0000000
N2   N   0.777744553074404   0.722246531672679   0.124659222937626   1.0000000
N2   N   0.611130004540089   0.222181072534485   0.124644650536634   1.0000000
N2   N   0.944395384744295   0.222191238083432   0.124850225199476   1.0000000
N2   N   0.111023253701606   0.388847043221768   0.625061460555410   1.0000000
N2   N   0.277807946844397   0.888908351564811   0.625139930479209   1.0000000
N2   N   0.611156406400199   0.888930879590738   0.625176842017987   1.0000000
N2   N   0.443947644122049   0.388640488727687   0.627144252395070   1.0000000
N2   N   0.944404581999085   0.888879532347269   0.625168450266613   1.0000000
N2   N   0.111093978803299   0.888888292242939   0.124875982741651   1.0000000
N2   N   0.777744553074404   0.388831354735061   0.625340777062375   1.0000000
N2   N   0.444499219839243   0.888916276586274   0.124863203260923   1.0000000
N2   N   0.277573093953648   0.388797284589495   0.124483530031036   1.0000000
N2   N   0.277767757227915   0.555546322312118   0.124879239193867   1.0000000
N2   N   0.611102806659784   0.388788569850264   0.125096301117260   1.0000000
N2   N   0.777785934801038   0.888928129164636   0.124794428160995   1.0000000
N2   N   0.944404581999085   0.388858382985165   0.124831549733374   1.0000000
N2   N   0.111093978803299   0.555539019893686   0.625124017258351   1.0000000
N2   N   0.277767757227915   0.055554768249146   0.625120760806124   1.0000000
N2   N   0.777733665886755   0.555533499610050   0.625064955189336   1.0000000
N2   N   0.611156406400199   0.055558860142795   0.625176842017987   1.0000000
N2   N   0.944395384744295   0.055537479994206   0.625149774800533   1.0000000
N2   N   0.056887849586897   0.111915044217882   0.375000000000000   1.0000000
N2   N   0.554808367571941   0.619437858729617   0.375000000000000   1.0000000
N2   N   0.386613563056072   0.104646620930242   0.375000000000000   1.0000000
N2   N   0.885072888892811   0.609203111113090   0.375000000000000   1.0000000
N2   N   0.722619017295066   0.110438881482247   0.375000000000000   1.0000000
N2   N   0.055557077951679   0.777773146078481   0.875000000000000   1.0000000
N2   N   0.388877701672112   0.777778802924443   0.875000000000000   1.0000000
N2   N   0.222219086824322   0.277776210078826   0.875000000000000   1.0000000
N2   N   0.722213868388310   0.777763618318923   0.875000000000000   1.0000000
N2   N   0.555539342223420   0.277772073837679   0.875000000000000   1.0000000
N2   N   0.888888829984480   0.277788320944406   0.875000000000000   1.0000000
N2   N   0.219140074653350   0.776236703993344   0.375000000000000   1.0000000
N2   N   0.056887849586897   0.278306138702355   0.375000000000000   1.0000000
N2   N   0.389779255210641   0.270327510385015   0.375000000000000   1.0000000
N2   N   0.554591480585574   0.781209800527201   0.375000000000000   1.0000000
N2   N   0.887363719922995   0.777510338914343   0.375000000000000   1.0000000
N2   N   0.722408803812697   0.275613155638531   0.375000000000000   1.0000000
N2   N   0.055555865382388   0.944432188101749   0.875000000000000   1.0000000
N2   N   0.388877701672112   0.944432232081017   0.875000000000000   1.0000000
N2   N   0.222214444775199   0.444453880574923   0.875000000000000   1.0000000
N2   N   0.555549689800875   0.444441511567102   0.875000000000000   1.0000000
N2   N   0.722212297751132   0.944434582706747   0.875000000000000   1.0000000
N2   N   0.888893554508251   0.444455586348268   0.875000000000000   1.0000000
N2   N   0.054435178018603   0.444190761725530   0.375000000000000   1.0000000
N2   N   0.219473479757464   0.941643533436182   0.375000000000000   1.0000000
N2   N   0.554574328891222   0.943953831112273   0.375000000000000   1.0000000
N2   N   0.389779255210641   0.452785078158961   0.375000000000000   1.0000000
N2   N   0.889501762732413   0.945442551968926   0.375000000000000   1.0000000
N2   N   0.719664586863015   0.441360066812816   0.375000000000000   1.0000000
N2   N   0.222212869169384   0.611120805817577   0.875000000000000   1.0000000
N2   N   0.055554463221476   0.111103685585257   0.875000000000000   1.0000000
N2   N   0.555539342223420   0.611100601719080   0.875000000000000   1.0000000
N2   N   0.388871569546890   0.111089408879960   0.875000000000000   1.0000000
N2   N   0.888900274657872   0.611116803995617   0.875000000000000   1.0000000
N2   N   0.052483499443814   0.609900078697651   0.375000000000000   1.0000000
N2   N   0.722212297751132   0.111111048377717   0.875000000000000   1.0000000
N2   N   0.221579064384215   0.109313702956105   0.375000000000000   1.0000000
N2   N   0.386613563056072   0.615300275459181   0.375000000000000   1.0000000
N2   N   0.719664586863015   0.611637853383527   0.375000000000000   1.0000000
N2   N   0.554591480585574   0.106715013391703   0.375000000000000   1.0000000
N2   N   0.388871569546890   0.611115494000274   0.875000000000000   1.0000000
N2   N   0.889998781002512   0.111666057167928   0.375000000000000   1.0000000
N2   N   0.222214390564104   0.777773861948718   0.875000000000000   1.0000000
N2   N   0.055554463221476   0.277784110969553   0.875000000000000   1.0000000
N2   N   0.388876183417011   0.277756010598700   0.875000000000000   1.0000000
N2   N   0.555539274042393   0.777768296677117   0.875000000000000   1.0000000
N2   N   0.888893554508251   0.777771301493316   0.875000000000000   1.0000000
N2   N   0.722213868388310   0.277783583402720   0.875000000000000   1.0000000
N2   N   0.052483499443814   0.775916754079502   0.375000000000000   1.0000000
N2   N   0.386501959179062   0.778285728016325   0.375000000000000   1.0000000
N2   N   0.225161601138745   0.279247467236047   0.375000000000000   1.0000000
N2   N   0.722408803812697   0.780128981507510   0.375000000000000   1.0000000
N2   N   0.554808367571941   0.268703842175665   0.375000000000000   1.0000000
N2   N   0.889501762732413   0.277392544096814   0.375000000000000   1.0000000
N2   N   0.055555865382388   0.444457010613960   0.875000000000000   1.0000000
N2   N   0.222212869169384   0.944425396685154   0.875000000000000   1.0000000
N2   N   0.555542344871456   0.944437839102394   0.875000000000000   1.0000000
N2   N   0.388876183417011   0.444453506151650   0.875000000000000   1.0000000
N2   N   0.888888829984480   0.944433842373423   0.875000000000000   1.0000000
N2   N   0.054435178018603   0.943577749626412   0.375000000000000   1.0000000
N2   N   0.722223973829337   0.444452721171638   0.875000000000000   1.0000000
N2   N   0.386501959179062   0.941549564496066   0.375000000000000   1.0000000
N2   N   0.221579064384215   0.445598694761443   0.375000000000000   1.0000000
N2   N   0.219473479757464   0.611163279654618   0.375000000000000   1.0000000
N2   N   0.722619017295066   0.945513469146138   0.375000000000000   1.0000000
N2   N   0.887363719922995   0.443186714341993   0.375000000000000   1.0000000
N2   N   0.055557077951679   0.611117265206533   0.875000000000000   1.0000000
N2   N   0.222214444775199   0.111093897533610   0.875000000000000   1.0000000
N2   N   0.722223973829337   0.611104585991035   0.875000000000000   1.0000000
N2   N   0.555539274042393   0.111104310698604   0.875000000000000   1.0000000
N2   N   0.888886380438777   0.111109856886057   0.875000000000000   1.0000000
B2   B   0.111706201633640   0.055389936733509   0.375000000000000   1.0000000
B2   B   0.606540222659290   0.560434866312607   0.375000000000000   1.0000000
B2   B   0.443037029635629   0.051985572653066   0.375000000000000   1.0000000
B2   B   0.941127679272474   0.554159086977850   0.375000000000000   1.0000000
B2   B   0.778820783061810   0.056077058197577   0.375000000000000   1.0000000
B2   B   0.111102436308893   0.722217884821109   0.875000000000000   1.0000000
B2   B   0.444419532056143   0.722138233737804   0.875000000000000   1.0000000
B2   B   0.277897912098976   0.222312914495847   0.875000000000000   1.0000000
B2   B   0.777695457638647   0.722101962302982   0.875000000000000   1.0000000
B2   B   0.611037998635026   0.222298733446561   0.875000000000000   1.0000000
B2   B   0.944485787103693   0.222257463536345   0.875000000000000   1.0000000
B2   B   0.275367762159620   0.721703550216125   0.375000000000000   1.0000000
B2   B   0.115046416774868   0.224189875054096   0.375000000000000   1.0000000
B2   B   0.442289670631642   0.216179175273815   0.375000000000000   1.0000000
B2   B   0.610707086673523   0.726736880124052   0.375000000000000   1.0000000
B2   B   0.941127679272474   0.720301925627967   0.375000000000000   1.0000000
B2   B   0.778345780883243   0.221537620679523   0.375000000000000   1.0000000
B2   B   0.111128427830226   0.888901348325844   0.875000000000000   1.0000000
B2   B   0.444420576906533   0.888876955119915   0.875000000000000   1.0000000
B2   B   0.277897912098976   0.388918330936459   0.875000000000000   1.0000000
B2   B   0.611007508141795   0.388930341588542   0.875000000000000   1.0000000
B2   B   0.777741721321251   0.888808380350249   0.875000000000000   1.0000000
B2   B   0.944444894512426   0.388921833592812   0.875000000000000   1.0000000
B2   B   0.111706201633640   0.389649598233454   0.375000000000000   1.0000000
B2   B   0.275367762159620   0.886997545276817   0.375000000000000   1.0000000
B2   B   0.611078589285163   0.890391886327186   0.375000000000000   1.0000000
B2   B   0.943661407955428   0.888545805121394   0.375000000000000   1.0000000
B2   B   0.775792422035173   0.387169961573308   0.375000000000000   1.0000000
B2   B   0.277819060472097   0.555528630640307   0.875000000000000   1.0000000
B2   B   0.111188714145399   0.055603325894056   0.875000000000000   1.0000000
B2   B   0.611007508141795   0.555410499886592   0.875000000000000   1.0000000
B2   B   0.444419532056143   0.055614631651678   0.875000000000000   1.0000000
B2   B   0.944402826866817   0.555554313071145   0.875000000000000   1.0000000
B2   B   0.108804142393074   0.555044674531928   0.375000000000000   1.0000000
B2   B   0.777763612935970   0.055548473134649   0.875000000000000   1.0000000
B2   B   0.276193734186613   0.053137060234162   0.375000000000000   1.0000000
B2   B   0.442289670631642   0.559443828691163   0.375000000000000   1.0000000
B2   B   0.772275776864868   0.552804555099112   0.375000000000000   1.0000000
B2   B   0.611078589285163   0.054020036291303   0.375000000000000   1.0000000
B2   B   0.444439837647531   0.555454601862127   0.875000000000000   1.0000000
B2   B   0.946169437634801   0.056675104982004   0.375000000000000   1.0000000
B2   B   0.277781471321721   0.722204651001579   0.875000000000000   1.0000000
B2   B   0.111227722757471   0.222280528045402   0.875000000000000   1.0000000
B2   B   0.444439837647531   0.222318569118736   0.875000000000000   1.0000000
B2   B   0.611037998635026   0.722072598521808   0.875000000000000   1.0000000
B2   B   0.944402826866817   0.722181847128999   0.875000000000000   1.0000000
B2   B   0.777741721321251   0.222266674304343   0.875000000000000   1.0000000
B2   B   0.108096802331401   0.720715067832366   0.375000000000000   1.0000000
B2   B   0.443037029635629   0.724384790315900   0.375000000000000   1.0000000
B2   B   0.282786007108896   0.223399572087870   0.375000000000000   1.0000000
B2   B   0.775792422035173   0.721955793795197   0.375000000000000   1.0000000
B2   B   0.610707086673523   0.217303539882811   0.375000000000000   1.0000000
B2   B   0.946169437634801   0.222827665986128   0.375000000000000   1.0000000
B2   B   0.111188714145399   0.388918721584670   0.875000000000000   1.0000000
B2   B   0.277781471321721   0.888910153653470   0.875000000000000   1.0000000
B2   B   0.611066929954392   0.888822695668570   0.875000000000000   1.0000000
B2   B   0.444485727677394   0.388909530505358   0.875000000000000   1.0000000
B2   B   0.944444894512426   0.888856394252932   0.875000000000000   1.0000000
B2   B   0.108804142393074   0.887092801194466   0.375000000000000   1.0000000
B2   B   0.777695457638647   0.388926828668981   0.875000000000000   1.0000000
B2   B   0.443051774283728   0.888192553808527   0.375000000000000   1.0000000
B2   B   0.282786007108896   0.392719768354353   0.375000000000000   1.0000000
B2   B   0.276193734186613   0.556390007285790   0.375000000000000   1.0000000
B2   B   0.606540222659290   0.379438689680014   0.375000000000000   1.0000000
B2   B   0.778345780883243   0.890141493537057   0.375000000000000   1.0000000
B2   B   0.943661407955428   0.388448936167358   0.375000000000000   1.0000000
B2   B   0.111128427830226   0.555560412837710   0.875000000000000   1.0000000
B2   B   0.277819060472097   0.055623763165135   0.875000000000000   1.0000000
B2   B   0.777675050989871   0.555504192161601   0.875000000000000   1.0000000
B2   B   0.611066929954392   0.055577567619151   0.875000000000000   1.0000000
B2   B   0.944485787103693   0.055561656900679   0.875000000000000   1.0000000
B2   B   0.055627556940758   0.111196373263018   0.125353142706258   1.0000000
B2   B   0.555477439661187   0.610770424689964   0.125816575595170   1.0000000
B2   B   0.389046422296454   0.111517951455531   0.125543355801602   1.0000000
B2   B   0.888518372864711   0.610925853099019   0.125221399887585   1.0000000
B2   B   0.722223176283122   0.111141079724959   0.125155028592847   1.0000000
B2   B   0.055460377963626   0.777769310948155   0.624842928666212   1.0000000
B2   B   0.389003117474861   0.777722338254687   0.624765176176297   1.0000000
B2   B   0.222374301524118   0.277853817428728   0.624445268271366   1.0000000
B2   B   0.722072826284997   0.777617493900250   0.624816788758298   1.0000000
B2   B   0.555477439661187   0.278040348304570   0.624183424404833   1.0000000
B2   B   0.888848500649607   0.277749009465676   0.624823687018302   1.0000000
B2   B   0.222279670070744   0.777806501702029   0.125171044462560   1.0000000
B2   B   0.055627556940758   0.277764517011074   0.125353142706258   1.0000000
B2   B   0.388942372607896   0.278126878026046   0.125643001082779   1.0000000
B2   B   0.555590930977363   0.777638201416633   0.125246103936987   1.0000000
B2   B   0.888661128220924   0.777660078570745   0.125117740581008   1.0000000
B2   B   0.722072826284997   0.277788665718085   0.125183211241701   1.0000000
B2   B   0.055558347146320   0.944534154823047   0.624729331920126   1.0000000
B2   B   0.389003117474861   0.944614112553491   0.624765176176297   1.0000000
B2   B   0.222363118809179   0.444307113029789   0.624463908912980   1.0000000
B2   B   0.554932570370315   0.444132951851822   0.620220706462785   1.0000000
B2   B   0.722223176283122   0.944415429891491   0.624844971407152   1.0000000
B2   B   0.888661128220924   0.444334382983516   0.624882259418986   1.0000000
B2   B   0.055558347146320   0.444357525656604   0.125270668079864   1.0000000
B2   B   0.222328152240510   0.944662886284325   0.125267274211912   1.0000000
B2   B   0.555623084495266   0.944478208914299   0.125194596532162   1.0000000
B2   B   0.388942372607896   0.444148827915186   0.125643001082779   1.0000000
B2   B   0.888848500649607   0.944432824517256   0.125176312981698   1.0000000
B2   B   0.721673520111630   0.444224614355387   0.125699646352563   1.0000000
B2   B   0.222328152240510   0.610998599289508   0.624732725788088   1.0000000
B2   B   0.055627556940758   0.111196373263018   0.624646857293744   1.0000000
B2   B   0.555477439661187   0.610770424689964   0.624183424404833   1.0000000
B2   B   0.389046422296454   0.111517951455531   0.624456644198404   1.0000000
B2   B   0.888518372864711   0.610925853099019   0.624778600112413   1.0000000
B2   B   0.055460377963626   0.611024400348798   0.125157071333794   1.0000000
B2   B   0.722223176283122   0.111141079724959   0.624844971407152   1.0000000
B2   B   0.222363118809179   0.111389339112729   0.125536091087015   1.0000000
B2   B   0.389046422296454   0.610861804174271   0.125543355801602   1.0000000
B2   B   0.721673520111630   0.610782239089576   0.125699646352563   1.0000000
B2   B   0.555590930977363   0.111286062894069   0.125246103936987   1.0000000
B2   B   0.389046422296454   0.610861804174271   0.624456644198404   1.0000000
B2   B   0.888907974284907   0.111120653809129   0.125174084502504   1.0000000
B2   B   0.222279670070744   0.777806501702029   0.624828955537448   1.0000000
B2   B   0.055627556940758   0.277764517011074   0.624646857293744   1.0000000
B2   B   0.388942372607896   0.278126878026046   0.624356998917219   1.0000000
B2   B   0.555590930977363   0.777638201416633   0.624753896063008   1.0000000
B2   B   0.888661128220924   0.777660078570745   0.624882259418986   1.0000000
B2   B   0.722072826284997   0.277788665718085   0.624816788758298   1.0000000
B2   B   0.055460377963626   0.777769310948155   0.125157071333794   1.0000000
B2   B   0.389003117474861   0.777722338254687   0.125234823823704   1.0000000
B2   B   0.222374301524118   0.277853817428728   0.125554731728636   1.0000000
B2   B   0.722072826284997   0.777617493900250   0.125183211241701   1.0000000
B2   B   0.555477439661187   0.278040348304570   0.125816575595170   1.0000000
B2   B   0.888848500649607   0.277749009465676   0.125176312981698   1.0000000
B2   B   0.055558347146320   0.444357525656604   0.624729331920126   1.0000000
B2   B   0.222328152240510   0.944662886284325   0.624732725788088   1.0000000
B2   B   0.555623084495266   0.944478208914299   0.624805403467847   1.0000000
B2   B   0.388942372607896   0.444148827915186   0.624356998917219   1.0000000
B2   B   0.888848500649607   0.944432824517256   0.624823687018302   1.0000000
B2   B   0.055558347146320   0.944534154823047   0.125270668079864   1.0000000
B2   B   0.721673520111630   0.444224614355387   0.624300353647430   1.0000000
B2   B   0.389003117474861   0.944614112553491   0.125234823823704   1.0000000
B2   B   0.222363118809179   0.444307113029789   0.125536091087015   1.0000000
B2   B   0.222328152240510   0.610998599289508   0.125267274211912   1.0000000
B2   B   0.554932570370315   0.444132951851822   0.129779293537209   1.0000000
B2   B   0.722223176283122   0.944415429891491   0.125155028592847   1.0000000
B2   B   0.888661128220924   0.444334382983516   0.125117740581008   1.0000000
B2   B   0.055460377963626   0.611024400348798   0.624842928666212   1.0000000
B2   B   0.222363118809179   0.111389339112729   0.624463908912980   1.0000000
B2   B   0.721673520111630   0.610782239089576   0.624300353647430   1.0000000
B2   B   0.555590930977363   0.111286062894069   0.624753896063008   1.0000000
B2   B   0.888907974284907   0.111120653809129   0.624825915497507   1.0000000


