data_1
_audit_creation_method   'vasp2cif'
_cell_length_a    14.93631414619966
_cell_length_b    14.936314146199727
_cell_length_c    13.341276283792837
_cell_angle_alpha    90.0
_cell_angle_beta    90.0
_cell_angle_gamma    119.99999999999984

_symmetry_space_group_name_H-M    'P 1'
loop_
_atom_site_label
_atom_site_type_symbol
_atom_site_fract_x
_atom_site_fract_y
_atom_site_fract_z
_atom_site_occupancy
Ge2   Ge   0.483835551986242   0.408584442659786   0.375000000000000   1.0000000
N2   N   0.111207553331126   0.055587686271406   0.124995261583518   1.0000000
N2   N   0.611198773629606   0.555638617839415   0.126223898406356   1.0000000
N2   N   0.444497930951179   0.055551107132799   0.125011433239209   1.0000000
N2   N   0.944497182854869   0.555586673488273   0.125180969753870   1.0000000
N2   N   0.777866572798327   0.055599953065831   0.125083877578742   1.0000000
N2   N   0.111154895448224   0.722244114390780   0.624847889739454   1.0000000
N2   N   0.444497930951179   0.722280157151710   0.624988566760789   1.0000000
N2   N   0.277909541211219   0.222268006536920   0.624165781918544   1.0000000
N2   N   0.777852356154154   0.722266377159019   0.624797138307288   1.0000000
N2   N   0.611171384607211   0.222218845818633   0.624907759786154   1.0000000
N2   N   0.944554298121755   0.222280956964559   0.624912657467454   1.0000000
N2   N   0.277822616568324   0.722258296463184   0.125101310348181   1.0000000
N2   N   0.111255732577656   0.222294532955491   0.125114241749877   1.0000000
N2   N   0.444523065875068   0.222226472982985   0.125965045356234   1.0000000
N2   N   0.611171384607211   0.722285872121898   0.125092240213845   1.0000000
N2   N   0.944497182854869   0.722243842699935   0.125180969753870   1.0000000
N2   N   0.777856531358851   0.222258488984971   0.125067438017363   1.0000000
N2   N   0.111165854376401   0.888900451636085   0.624909276090830   1.0000000
N2   N   0.444494030412266   0.888913681872801   0.624946608594202   1.0000000
N2   N   0.277909541211219   0.388974868007621   0.624165781918544   1.0000000
N2   N   0.611198773629606   0.388893489123512   0.623776101593648   1.0000000
N2   N   0.777856531358851   0.888931375707211   0.624932561982634   1.0000000
N2   N   0.944525945331336   0.388934336522342   0.624915421053799   1.0000000
N2   N   0.111207553331126   0.388953200393049   0.124995261583518   1.0000000
N2   N   0.277822616568324   0.888897653438478   0.125101310348181   1.0000000
N2   N   0.611175942438904   0.888936329989865   0.125004392973893   1.0000000
N2   N   0.444669774085060   0.389001553709199   0.130270881199194   1.0000000
N2   N   0.944525945331336   0.888924942142332   0.125084578946204   1.0000000
N2   N   0.777852356154154   0.388919312328464   0.125202861692718   1.0000000
N2   N   0.277843185065599   0.555618341849638   0.624862263509808   1.0000000
N2   N   0.111207553331126   0.055587686271406   0.625004738416486   1.0000000
N2   N   0.611198773629606   0.555638617839415   0.623776101593648   1.0000000
N2   N   0.444497930951179   0.055551107132799   0.624988566760789   1.0000000
N2   N   0.944497182854869   0.555586673488273   0.624819030246135   1.0000000
N2   N   0.111165854376401   0.555598736073648   0.125090723909173   1.0000000
N2   N   0.777866572798327   0.055599953065831   0.624916122421256   1.0000000
N2   N   0.277843185065599   0.055558176549308   0.125137736490196   1.0000000
N2   N   0.444523065875068   0.555629926225411   0.125965045356234   1.0000000
N2   N   0.777823451330863   0.555578392332097   0.125497406116012   1.0000000
N2   N   0.611175942438904   0.055572945782369   0.125004392973893   1.0000000
N2   N   0.444523065875068   0.555629926225411   0.624034954643767   1.0000000
N2   N   0.944554298121755   0.055606674490524   0.125087342532541   1.0000000
N2   N   0.277822616568324   0.722258296463184   0.624898689651809   1.0000000
N2   N   0.111255732577656   0.222294532955491   0.624885758250122   1.0000000
N2   N   0.444523065875068   0.222226472982985   0.624034954643767   1.0000000
N2   N   0.611171384607211   0.722285872121898   0.624907759786154   1.0000000
N2   N   0.944497182854869   0.722243842699935   0.624819030246135   1.0000000
N2   N   0.777856531358851   0.222258488984971   0.624932561982634   1.0000000
N2   N   0.111154895448224   0.722244114390780   0.125152110260554   1.0000000
N2   N   0.444497930951179   0.722280157151710   0.125011433239209   1.0000000
N2   N   0.277909541211219   0.222268006536920   0.125834218081455   1.0000000
N2   N   0.777852356154154   0.722266377159019   0.125202861692718   1.0000000
N2   N   0.611171384607211   0.222218845818633   0.125092240213845   1.0000000
N2   N   0.944554298121755   0.222280956964559   0.125087342532541   1.0000000
N2   N   0.111207553331126   0.388953200393049   0.625004738416486   1.0000000
N2   N   0.277822616568324   0.888897653438478   0.624898689651809   1.0000000
N2   N   0.611175942438904   0.888936329989865   0.624995607026105   1.0000000
N2   N   0.444669774085060   0.389001553709199   0.619729118800819   1.0000000
N2   N   0.944525945331336   0.888924942142332   0.624915421053799   1.0000000
N2   N   0.111165854376401   0.888900451636085   0.125090723909173   1.0000000
N2   N   0.777852356154154   0.388919312328464   0.624797138307288   1.0000000
N2   N   0.444494030412266   0.888913681872801   0.125053391405791   1.0000000
N2   N   0.277909541211219   0.388974868007621   0.125834218081455   1.0000000
N2   N   0.277843185065599   0.555618341849638   0.125137736490196   1.0000000
N2   N   0.611198773629606   0.388893489123512   0.126223898406356   1.0000000
N2   N   0.777856531358851   0.888931375707211   0.125067438017363   1.0000000
N2   N   0.944525945331336   0.388934336522342   0.125084578946204   1.0000000
N2   N   0.111165854376401   0.555598736073648   0.624909276090830   1.0000000
N2   N   0.277843185065599   0.055558176549308   0.624862263509808   1.0000000
N2   N   0.777823451330863   0.555578392332097   0.624502593883981   1.0000000
N2   N   0.611175942438904   0.055572945782369   0.624995607026105   1.0000000
N2   N   0.944554298121755   0.055606674490524   0.624912657467454   1.0000000
N2   N   0.057133960145912   0.112113863154828   0.375000000000000   1.0000000
N2   N   0.554508420751158   0.618620633603509   0.375000000000000   1.0000000
N2   N   0.386976290283890   0.105499910839191   0.375000000000000   1.0000000
N2   N   0.884289097993498   0.608811215663427   0.375000000000000   1.0000000
N2   N   0.722853825732947   0.110610173675657   0.375000000000000   1.0000000
N2   N   0.055553087757987   0.777780611752202   0.875000000000000   1.0000000
N2   N   0.388899374307302   0.777779714762126   0.875000000000000   1.0000000
N2   N   0.222226266108437   0.277779799720889   0.875000000000000   1.0000000
N2   N   0.722227073863374   0.777783336202227   0.875000000000000   1.0000000
N2   N   0.555560819158068   0.277783544083846   0.875000000000000   1.0000000
N2   N   0.888892938963792   0.277775894290306   0.875000000000000   1.0000000
N2   N   0.219394773663968   0.776364053498647   0.375000000000000   1.0000000
N2   N   0.057133960145912   0.278353430324420   0.375000000000000   1.0000000
N2   N   0.390711258136551   0.271661742828357   0.375000000000000   1.0000000
N2   N   0.554886492010239   0.781051104654836   0.375000000000000   1.0000000
N2   N   0.887038345937117   0.777303448015139   0.375000000000000   1.0000000
N2   N   0.722292288495724   0.275722557596933   0.375000000000000   1.0000000
N2   N   0.055555602045002   0.944449981414661   0.875000000000000   1.0000000
N2   N   0.388899374307302   0.944452992878498   0.875000000000000   1.0000000
N2   N   0.222225487353461   0.444437611418517   0.875000000000000   1.0000000
N2   N   0.555548480317611   0.444440906825470   0.875000000000000   1.0000000
N2   N   0.722227511134507   0.944448871309141   0.875000000000000   1.0000000
N2   N   0.888889961265138   0.444439518358398   0.875000000000000   1.0000000
N2   N   0.054775514352188   0.444101376839001   0.375000000000000   1.0000000
N2   N   0.219828315736284   0.942187410298954   0.375000000000000   1.0000000
N2   N   0.554913933348067   0.944123633340699   0.375000000000000   1.0000000
N2   N   0.390711258136551   0.452382848641525   0.375000000000000   1.0000000
N2   N   0.889602334100367   0.945486991537319   0.375000000000000   1.0000000
N2   N   0.718245093726993   0.441210845761718   0.375000000000000   1.0000000
N2   N   0.222227219645367   0.611104879909022   0.875000000000000   1.0000000
N2   N   0.055554534046815   0.111112667312982   0.875000000000000   1.0000000
N2   N   0.555560819158068   0.611110608407579   0.875000000000000   1.0000000
N2   N   0.388900714922633   0.111127996559684   0.875000000000000   1.0000000
N2   N   0.888882702995520   0.611108018164430   0.875000000000000   1.0000000
N2   N   0.052391981965801   0.609779360365563   0.375000000000000   1.0000000
N2   N   0.722227511134507   0.111111973158698   0.875000000000000   1.0000000
N2   N   0.222537807461666   0.110499983249840   0.375000000000000   1.0000000
N2   N   0.386976290283890   0.614809712778037   0.375000000000000   1.0000000
N2   N   0.718245093726993   0.610367581298605   0.375000000000000   1.0000000
N2   N   0.554886492010239   0.107168720688730   0.375000000000000   1.0000000
N2   N   0.388900714922633   0.611106051696289   0.875000000000000   1.0000000
N2   N   0.890216567664336   0.111774950498843   0.375000000000000   1.0000000
N2   N   0.222226606260795   0.777779969797070   0.875000000000000   1.0000000
N2   N   0.055554534046815   0.277775200067170   0.875000000000000   1.0000000
N2   N   0.388900744813904   0.277796169610832   0.875000000000000   1.0000000
N2   N   0.555563488845145   0.777781735056851   0.875000000000000   1.0000000
N2   N   0.888889961265138   0.777783776240057   0.875000000000000   1.0000000
N2   N   0.722227073863374   0.277777070994481   0.875000000000000   1.0000000
N2   N   0.052391981965801   0.775945954933575   0.375000000000000   1.0000000
N2   N   0.386908577241781   0.778247828591544   0.375000000000000   1.0000000
N2   N   0.225461159953565   0.279397246643451   0.375000000000000   1.0000000
N2   N   0.722292288495724   0.779903064232135   0.375000000000000   1.0000000
N2   N   0.554508420751158   0.269221120480974   0.375000000000000   1.0000000
N2   N   0.889602334100367   0.277448675896398   0.375000000000000   1.0000000
N2   N   0.055555602045002   0.444438953963663   0.875000000000000   1.0000000
N2   N   0.222227219645367   0.944455673069673   0.875000000000000   1.0000000
N2   N   0.555562202131284   0.944447767732310   0.875000000000000   1.0000000
N2   N   0.388900744813904   0.444437908536411   0.875000000000000   1.0000000
N2   N   0.888892938963792   0.944450378006817   0.875000000000000   1.0000000
N2   N   0.054775514352188   0.944007470846518   0.375000000000000   1.0000000
N2   N   0.722218879878951   0.444440916630134   0.875000000000000   1.0000000
N2   N   0.386908577241781   0.941994081983570   0.375000000000000   1.0000000
N2   N   0.222537807461666   0.445371157545168   0.375000000000000   1.0000000
N2   N   0.219828315736284   0.610974238770683   0.375000000000000   1.0000000
N2   N   0.722853825732947   0.945576985390614   0.375000000000000   1.0000000
N2   N   0.887038345937117   0.443068231255321   0.375000000000000   1.0000000
N2   N   0.055553087757987   0.611105809339115   0.875000000000000   1.0000000
N2   N   0.222225487353461   0.111121209268280   0.875000000000000   1.0000000
N2   N   0.722218879878951   0.611111296582161   0.875000000000000   1.0000000
N2   N   0.555563488845145   0.111115087121628   0.875000000000000   1.0000000
N2   N   0.888891469750689   0.111112401542017   0.875000000000000   1.0000000
B2   B   0.111263572144213   0.055327933700733   0.375000000000000   1.0000000
B2   B   0.610412707238989   0.567523879980469   0.375000000000000   1.0000000
B2   B   0.443537655301321   0.051620500352868   0.375000000000000   1.0000000
B2   B   0.941458912888293   0.554095168073029   0.375000000000000   1.0000000
B2   B   0.779175461073632   0.056254397203481   0.375000000000000   1.0000000
B2   B   0.111119725122974   0.722226529228160   0.875000000000000   1.0000000
B2   B   0.444450430644918   0.722252450981302   0.875000000000000   1.0000000
B2   B   0.277716028070845   0.222183821452170   0.875000000000000   1.0000000
B2   B   0.777820299850121   0.722284633323941   0.875000000000000   1.0000000
B2   B   0.611138936846466   0.222183816102430   0.875000000000000   1.0000000
B2   B   0.944440277250846   0.222212262552919   0.875000000000000   1.0000000
B2   B   0.275572188820162   0.721882774633277   0.375000000000000   1.0000000
B2   B   0.113288370828150   0.223310852080740   0.375000000000000   1.0000000
B2   B   0.442667471390994   0.213879930222552   0.375000000000000   1.0000000
B2   B   0.611966042003089   0.728928002499084   0.375000000000000   1.0000000
B2   B   0.941458912888293   0.720697078148576   0.375000000000000   1.0000000
B2   B   0.778904507452581   0.221199539284932   0.375000000000000   1.0000000
B2   B   0.111109151971676   0.888893993436536   0.875000000000000   1.0000000
B2   B   0.444454633701928   0.888893983517627   0.875000000000000   1.0000000
B2   B   0.277716028070845   0.388865539952004   0.875000000000000   1.0000000
B2   B   0.611147721775124   0.388862066388132   0.875000000000000   1.0000000
B2   B   0.777803331642677   0.888934965029743   0.875000000000000   1.0000000
B2   B   0.944458364819060   0.388872531197174   0.875000000000000   1.0000000
B2   B   0.111263572144213   0.389268971776805   0.375000000000000   1.0000000
B2   B   0.275572188820162   0.887022747520204   0.375000000000000   1.0000000
B2   B   0.611717381150805   0.891076067931729   0.375000000000000   1.0000000
B2   B   0.943890472762157   0.889001420981532   0.375000000000000   1.0000000
B2   B   0.776664297921278   0.386462168027667   0.375000000000000   1.0000000
B2   B   0.277754762202630   0.555554656954962   0.875000000000000   1.0000000
B2   B   0.111082262991323   0.055545009400237   0.875000000000000   1.0000000
B2   B   0.611147721775124   0.555618988720306   0.875000000000000   1.0000000
B2   B   0.444450430644918   0.055531312996960   0.875000000000000   1.0000000
B2   B   0.944472250114874   0.555555819796830   0.875000000000000   1.0000000
B2   B   0.108814870461963   0.554981551103743   0.375000000000000   1.0000000
B2   B   0.777789254362922   0.055561293848128   0.875000000000000   1.0000000
B2   B   0.275805776601725   0.052635017219147   0.375000000000000   1.0000000
B2   B   0.442667471390994   0.562120874501780   0.375000000000000   1.0000000
B2   B   0.773541244276710   0.553437288805022   0.375000000000000   1.0000000
B2   B   0.611717381150805   0.053974646552406   0.375000000000000   1.0000000
B2   B   0.444433207670407   0.555586580576363   0.875000000000000   1.0000000
B2   B   0.945918502664054   0.056648881827822   0.375000000000000   1.0000000
B2   B   0.277777303575578   0.722226964699034   0.875000000000000   1.0000000
B2   B   0.111065082395827   0.222199207864577   0.875000000000000   1.0000000
B2   B   0.444433207670407   0.222179960427379   0.875000000000000   1.0000000
B2   B   0.611138936846466   0.722288454077361   0.875000000000000   1.0000000
B2   B   0.944472250114874   0.722249763651384   0.875000000000000   1.0000000
B2   B   0.777803331642677   0.222201699946257   0.875000000000000   1.0000000
B2   B   0.108249776238448   0.720791554785892   0.375000000000000   1.0000000
B2   B   0.443537655301321   0.725250488281798   0.375000000000000   1.0000000
B2   B   0.279172680413963   0.221804340301010   0.375000000000000   1.0000000
B2   B   0.776664297921278   0.723535463226934   0.375000000000000   1.0000000
B2   B   0.611966042003089   0.216371372837354   0.375000000000000   1.0000000
B2   B   0.945918502664054   0.222602954169568   0.375000000000000   1.0000000
B2   B   0.111082262991323   0.388870586924413   0.875000000000000   1.0000000
B2   B   0.277777303575578   0.888883672209858   0.875000000000000   1.0000000
B2   B   0.611130698332136   0.888919988008435   0.875000000000000   1.0000000
B2   B   0.444398892829674   0.388866113081505   0.875000000000000   1.0000000
B2   B   0.944458364819060   0.888919166955209   0.875000000000000   1.0000000
B2   B   0.108814870461963   0.887166652691554   0.375000000000000   1.0000000
B2   B   0.777820299850121   0.388868999859512   0.875000000000000   1.0000000
B2   B   0.443532646029707   0.888432989681514   0.375000000000000   1.0000000
B2   B   0.279172680413963   0.390701673446285   0.375000000000000   1.0000000
B2   B   0.275805776601725   0.556504092715913   0.375000000000000   1.0000000
B2   B   0.610412707238989   0.376222160591847   0.375000000000000   1.0000000
B2   B   0.778904507452581   0.891038301500986   0.375000000000000   1.0000000
B2   B   0.943890472762157   0.388222385113944   0.375000000000000   1.0000000
B2   B   0.111109151971676   0.555548491868477   0.875000000000000   1.0000000
B2   B   0.277754762202630   0.055533438581011   0.875000000000000   1.0000000
B2   B   0.777824349800430   0.555578841566885   0.875000000000000   1.0000000
B2   B   0.611130698332136   0.055544043657028   0.875000000000000   1.0000000
B2   B   0.944440277250846   0.055561348031272   0.875000000000000   1.0000000
B2   B   0.055628307873301   0.111129093747530   0.124892372568711   1.0000000
B2   B   0.555609321841735   0.611376729877670   0.125205011054399   1.0000000
B2   B   0.388838427327249   0.110886922362950   0.124978267133738   1.0000000
B2   B   0.889126124352508   0.611229728842924   0.124961302971294   1.0000000
B2   B   0.722306933190501   0.111110003008277   0.124872204715216   1.0000000
B2   B   0.055672235312555   0.777824493797557   0.625041663681481   1.0000000
B2   B   0.388885896286861   0.777846827542135   0.625146831292985   1.0000000
B2   B   0.222218404630015   0.277775868981677   0.624621945100933   1.0000000
B2   B   0.722359772695731   0.777952702458629   0.625197895357141   1.0000000
B2   B   0.555609321841735   0.277565925297391   0.624794988945601   1.0000000
B2   B   0.889011437431712   0.277813874315667   0.625094504466678   1.0000000
B2   B   0.222255742770245   0.777794538051784   0.124962372874940   1.0000000
B2   B   0.055628307873301   0.277832547459108   0.124892372568711   1.0000000
B2   B   0.388742112670885   0.277417173091908   0.126890499579588   1.0000000
B2   B   0.555588815286810   0.777930629468225   0.124761406794878   1.0000000
B2   B   0.889081633145540   0.777910185696629   0.124895603679011   1.0000000
B2   B   0.722359772695731   0.277740403570446   0.124802104642855   1.0000000
B2   B   0.055642735715209   0.944462965737586   0.625125708805656   1.0000000
B2   B   0.388885896286861   0.944372402078056   0.625146831292985   1.0000000
B2   B   0.222210892500883   0.444544486824683   0.624990067830441   1.0000000
B2   B   0.555934631061232   0.444633982197280   0.623747378530730   1.0000000
B2   B   0.722306933190501   0.944530263515550   0.625127795284783   1.0000000
B2   B   0.889081633145540   0.444504780782257   0.625104396320991   1.0000000
B2   B   0.055642735715209   0.444513103310952   0.124874291194342   1.0000000
B2   B   0.222234975989230   0.944370510891308   0.124907897844956   1.0000000
B2   B   0.555590019996363   0.944461676664855   0.124839230140073   1.0000000
B2   B   0.388742112670885   0.444658272912315   0.126890499579588   1.0000000
B2   B   0.889011437431712   0.944530896449383   0.124905495533319   1.0000000
B2   B   0.722539368061205   0.444526035912930   0.125063882172866   1.0000000
B2   B   0.222234975989230   0.611197798431259   0.625092102155036   1.0000000
B2   B   0.055628307873301   0.111129093747530   0.625107627431289   1.0000000
B2   B   0.555609321841735   0.611376729877670   0.624794988945601   1.0000000
B2   B   0.388838427327249   0.110886922362950   0.625021732866265   1.0000000
B2   B   0.889126124352508   0.611229728842924   0.625038697028693   1.0000000
B2   B   0.055672235312555   0.611181074848333   0.124958336318522   1.0000000
B2   B   0.722306933190501   0.111110003008277   0.625127795284783   1.0000000
B2   B   0.222210892500883   0.110999739009534   0.125009932169553   1.0000000
B2   B   0.388838427327249   0.611284838297640   0.124978267133738   1.0000000
B2   B   0.722539368061205   0.611346665481620   0.125063882172866   1.0000000
B2   B   0.555588815286810   0.110991519151930   0.124761406794878   1.0000000
B2   B   0.388838427327249   0.611284838297640   0.625021732866265   1.0000000
B2   B   0.888988652877825   0.111160993105586   0.124939876572482   1.0000000
B2   B   0.222255742770245   0.777794538051784   0.625037627125053   1.0000000
B2   B   0.055628307873301   0.277832547459108   0.625107627431289   1.0000000
B2   B   0.388742112670885   0.277417173091908   0.623109500420421   1.0000000
B2   B   0.555588815286810   0.777930629468225   0.625238593205119   1.0000000
B2   B   0.889081633145540   0.777910185696629   0.625104396320991   1.0000000
B2   B   0.722359772695731   0.277740403570446   0.625197895357141   1.0000000
B2   B   0.055672235312555   0.777824493797557   0.124958336318522   1.0000000
B2   B   0.388885896286861   0.777846827542135   0.124853168707007   1.0000000
B2   B   0.222218404630015   0.277775868981677   0.125378054899070   1.0000000
B2   B   0.722359772695731   0.777952702458629   0.124802104642855   1.0000000
B2   B   0.555609321841735   0.277565925297391   0.125205011054399   1.0000000
B2   B   0.889011437431712   0.277813874315667   0.124905495533319   1.0000000
B2   B   0.055642735715209   0.444513103310952   0.625125708805656   1.0000000
B2   B   0.222234975989230   0.944370510891308   0.625092102155036   1.0000000
B2   B   0.555590019996363   0.944461676664855   0.625160769859932   1.0000000
B2   B   0.388742112670885   0.444658272912315   0.623109500420421   1.0000000
B2   B   0.889011437431712   0.944530896449383   0.625094504466678   1.0000000
B2   B   0.055642735715209   0.944462965737586   0.124874291194342   1.0000000
B2   B   0.722539368061205   0.444526035912930   0.624936117827144   1.0000000
B2   B   0.388885896286861   0.944372402078056   0.124853168707007   1.0000000
B2   B   0.222210892500883   0.444544486824683   0.125009932169553   1.0000000
B2   B   0.222234975989230   0.611197798431259   0.124907897844956   1.0000000
B2   B   0.555934631061232   0.444633982197280   0.126252621469265   1.0000000
B2   B   0.722306933190501   0.944530263515550   0.124872204715216   1.0000000
B2   B   0.889081633145540   0.444504780782257   0.124895603679011   1.0000000
B2   B   0.055672235312555   0.611181074848333   0.625041663681481   1.0000000
B2   B   0.222210892500883   0.110999739009534   0.624990067830441   1.0000000
B2   B   0.722539368061205   0.611346665481620   0.624936117827144   1.0000000
B2   B   0.555588815286810   0.110991519151930   0.625238593205119   1.0000000
B2   B   0.888988652877825   0.111160993105586   0.625060123427534   1.0000000


