data_1
_audit_creation_method   'vasp2cif'
_cell_length_a    14.93631414619966
_cell_length_b    14.936314146199727
_cell_length_c    13.341276283792837
_cell_angle_alpha    90.0
_cell_angle_beta    90.0
_cell_angle_gamma    119.99999999999984

_symmetry_space_group_name_H-M    'P 1'
loop_
_atom_site_label
_atom_site_type_symbol
_atom_site_fract_x
_atom_site_fract_y
_atom_site_fract_z
_atom_site_occupancy
Se2   Se   0.495140979493206   0.414237156413267   0.375000000000000   1.0000000
N2   N   0.111060787851065   0.055510407110918   0.125217358414071   1.0000000
N2   N   0.611014807162352   0.555501001225955   0.124899904846042   1.0000000
N2   N   0.444402386743477   0.055517264047835   0.125206643998514   1.0000000
N2   N   0.944389070782328   0.555536837459860   0.125212028394994   1.0000000
N2   N   0.777745749747357   0.055539541540348   0.125091304158533   1.0000000
N2   N   0.111064610034729   0.722198971684025   0.624877593317188   1.0000000
N2   N   0.444402386743477   0.722218456028977   0.624793356001483   1.0000000
N2   N   0.277699166365719   0.222173646192663   0.625125986284815   1.0000000
N2   N   0.777704065390672   0.722167899266599   0.624656389846849   1.0000000
N2   N   0.611051979159243   0.222186897812450   0.624754482374492   1.0000000
N2   N   0.944405558950778   0.222213136404046   0.624858163473344   1.0000000
N2   N   0.277737029106106   0.722211234658631   0.125146215658228   1.0000000
N2   N   0.111054852347491   0.222194092840409   0.125167282960337   1.0000000
N2   N   0.444392194776524   0.222177511197641   0.124880593608237   1.0000000
N2   N   0.611051979159243   0.722198414680120   0.125245517625506   1.0000000
N2   N   0.944389070782328   0.722185566655800   0.125212028394994   1.0000000
N2   N   0.777735213291603   0.222208882175344   0.125157188867488   1.0000000
N2   N   0.111064160788561   0.888849588714343   0.624857095426420   1.0000000
N2   N   0.444408682704694   0.888871008019012   0.624856530158917   1.0000000
N2   N   0.277699166365718   0.388858853506387   0.625125986284815   1.0000000
N2   N   0.611014807162352   0.388847139269725   0.625100095153961   1.0000000
N2   N   0.777735213291603   0.888859664449585   0.624842811132515   1.0000000
N2   N   0.944394886359016   0.388884989845076   0.624814420973849   1.0000000
N2   N   0.111060787851065   0.388883714073475   0.125217358414071   1.0000000
N2   N   0.277737029106106   0.888859127780801   0.125146215658228   1.0000000
N2   N   0.611074334753161   0.888876914862242   0.125125639438625   1.0000000
N2   N   0.444274921632663   0.388804127482996   0.123066680621969   1.0000000
N2   N   0.944394886359016   0.888843229847278   0.125185579026147   1.0000000
N2   N   0.777704065390672   0.388869499457406   0.125343610153153   1.0000000
N2   N   0.277730146976845   0.555550664622614   0.624832238837692   1.0000000
N2   N   0.111060787851065   0.055510407110918   0.624782641585935   1.0000000
N2   N   0.611014807162353   0.555501001225955   0.625100095153961   1.0000000
N2   N   0.444402386743477   0.055517264047835   0.624793356001483   1.0000000
N2   N   0.944389070782328   0.555536837459861   0.624787971605007   1.0000000
N2   N   0.111064160788561   0.555547905407553   0.125142904573580   1.0000000
N2   N   0.777745749747357   0.055539541540348   0.624908695841463   1.0000000
N2   N   0.277730146976845   0.055512815687564   0.125167761162308   1.0000000
N2   N   0.444392194776524   0.555548016912219   0.124880593608237   1.0000000
N2   N   0.777701182244546   0.555517257788941   0.125364286188468   1.0000000
N2   N   0.611074334753161   0.055530753224246   0.125125639438625   1.0000000
N2   N   0.444392194776524   0.555548016912219   0.625119406391758   1.0000000
N2   N   0.944405558950778   0.055525755880071   0.125141836526655   1.0000000
N2   N   0.277737029106106   0.722211234658631   0.624853784341769   1.0000000
N2   N   0.111054852347491   0.222194092840409   0.624832717039659   1.0000000
N2   N   0.444392194776524   0.222177511197641   0.625119406391758   1.0000000
N2   N   0.611051979159243   0.722198414680120   0.624754482374492   1.0000000
N2   N   0.944389070782328   0.722185566655799   0.624787971605007   1.0000000
N2   N   0.777735213291603   0.222208882175344   0.624842811132515   1.0000000
N2   N   0.111064610034729   0.722198971684025   0.125122406682810   1.0000000
N2   N   0.444402386743477   0.722218456028977   0.125206643998514   1.0000000
N2   N   0.277699166365718   0.222173646192663   0.124874013715185   1.0000000
N2   N   0.777704065390672   0.722167899266599   0.125343610153153   1.0000000
N2   N   0.611051979159243   0.222186897812450   0.125245517625506   1.0000000
N2   N   0.944405558950778   0.222213136404046   0.125141836526655   1.0000000
N2   N   0.111060787851065   0.388883714073475   0.624782641585935   1.0000000
N2   N   0.277737029106106   0.888859127780801   0.624853784341769   1.0000000
N2   N   0.611074334753161   0.888876914862242   0.624874360561377   1.0000000
N2   N   0.444274921632663   0.388804127482996   0.626933319378030   1.0000000
N2   N   0.944394886359016   0.888843229847278   0.624814420973849   1.0000000
N2   N   0.111064160788561   0.888849588714343   0.125142904573580   1.0000000
N2   N   0.777704065390672   0.388869499457406   0.624656389846849   1.0000000
N2   N   0.444408682704694   0.888871008019012   0.125143469841080   1.0000000
N2   N   0.277699166365718   0.388858853506387   0.124874013715185   1.0000000
N2   N   0.277730146976845   0.555550664622614   0.125167761162308   1.0000000
N2   N   0.611014807162352   0.388847139269725   0.124899904846042   1.0000000
N2   N   0.777735213291603   0.888859664449585   0.125157188867488   1.0000000
N2   N   0.944394886359016   0.388884989845076   0.125185579026147   1.0000000
N2   N   0.111064160788561   0.555547905407553   0.624857095426420   1.0000000
N2   N   0.277730146976845   0.055512815687564   0.624832238837692   1.0000000
N2   N   0.777701182244546   0.555517257788941   0.624635713811534   1.0000000
N2   N   0.611074334753161   0.055530753224246   0.624874360561377   1.0000000
N2   N   0.944405558950778   0.055525755880071   0.624858163473344   1.0000000
N2   N   0.059037856700297   0.113103209514755   0.375000000000000   1.0000000
N2   N   0.555396058842246   0.618762789662837   0.375000000000000   1.0000000
N2   N   0.388478517117967   0.106536934476864   0.375000000000000   1.0000000
N2   N   0.885995611110223   0.609664472221786   0.375000000000000   1.0000000
N2   N   0.724431623502350   0.111471531941702   0.375000000000000   1.0000000
N2   N   0.055517426651075   0.777759913631528   0.875000000000000   1.0000000
N2   N   0.388858740955634   0.777761915961536   0.875000000000000   1.0000000
N2   N   0.222182376599067   0.277757854966204   0.875000000000000   1.0000000
N2   N   0.722187922293469   0.777757963144405   0.875000000000000   1.0000000
N2   N   0.555520758611793   0.277764282927153   0.875000000000000   1.0000000
N2   N   0.888855010421185   0.277762189989451   0.875000000000000   1.0000000
N2   N   0.220978031707018   0.777155682520175   0.375000000000000   1.0000000
N2   N   0.059037856700297   0.279267980518879   0.375000000000000   1.0000000
N2   N   0.393869637769019   0.273576686019086   0.375000000000000   1.0000000
N2   N   0.556351377370792   0.781528159167795   0.375000000000000   1.0000000
N2   N   0.888433596979539   0.777896865997962   0.375000000000000   1.0000000
N2   N   0.723692506597443   0.276646015177754   0.375000000000000   1.0000000
N2   N   0.055516797977685   0.944425709522140   0.875000000000000   1.0000000
N2   N   0.388858740955634   0.944430158327430   0.875000000000000   1.0000000
N2   N   0.222182169069259   0.444424358779594   0.875000000000000   1.0000000
N2   N   0.555524669430463   0.444429001381896   0.875000000000000   1.0000000
N2   N   0.722188803480738   0.944426518026582   0.875000000000000   1.0000000
N2   N   0.888853715686261   0.444426671641872   0.875000000000000   1.0000000
N2   N   0.056766742475591   0.444842553080958   0.375000000000000   1.0000000
N2   N   0.221497209422700   0.943166221033716   0.375000000000000   1.0000000
N2   N   0.556481508092224   0.944907420712776   0.375000000000000   1.0000000
N2   N   0.393869637769019   0.453626285083269   0.375000000000000   1.0000000
N2   N   0.891241056221370   0.946272587898723   0.375000000000000   1.0000000
N2   N   0.719270466458627   0.442516455590125   0.375000000000000   1.0000000
N2   N   0.222184670369861   0.611091188208662   0.875000000000000   1.0000000
N2   N   0.055516814824474   0.111090988338170   0.875000000000000   1.0000000
N2   N   0.555520758611793   0.611089809017975   0.875000000000000   1.0000000
N2   N   0.388853801252579   0.111094820644456   0.875000000000000   1.0000000
N2   N   0.888852734669020   0.611093034001186   0.875000000000000   1.0000000
N2   N   0.054021710179189   0.610508280588852   0.375000000000000   1.0000000
N2   N   0.722188803480738   0.111095618787491   0.875000000000000   1.0000000
N2   N   0.225486674731951   0.112564512229696   0.375000000000000   1.0000000
N2   N   0.388478517117966   0.615274915974443   0.375000000000000   1.0000000
N2   N   0.719270466458627   0.610087344201843   0.375000000000000   1.0000000
N2   N   0.556351377370794   0.108156551536337   0.375000000000000   1.0000000
N2   N   0.388853801252579   0.611092313941467   0.875000000000000   1.0000000
N2   N   0.891929386745129   0.112631360039238   0.375000000000000   1.0000000
N2   N   0.222187668886213   0.777760501109771   0.875000000000000   1.0000000
N2   N   0.055516814824474   0.277759159819640   0.875000000000000   1.0000000
N2   N   0.388850909742568   0.277756055747362   0.875000000000000   1.0000000
N2   N   0.555522804052254   0.777758690279567   0.875000000000000   1.0000000
N2   N   0.888853715686261   0.777760377377723   0.875000000000000   1.0000000
N2   N   0.722187922293469   0.277763292482396   0.875000000000000   1.0000000
N2   N   0.054021710179189   0.776846762923675   0.375000000000000   1.0000000
N2   N   0.388477185293991   0.778933618247420   0.375000000000000   1.0000000
N2   N   0.227332495165316   0.280332914249327   0.375000000000000   1.0000000
N2   N   0.723692506597442   0.780379824753029   0.375000000000000   1.0000000
N2   N   0.555396058842256   0.269966602512749   0.375000000000000   1.0000000
N2   N   0.891241056221376   0.278301801655986   0.375000000000000   1.0000000
N2   N   0.055516797977685   0.444424421788869   0.875000000000000   1.0000000
N2   N   0.222184670369861   0.944426815494538   0.875000000000000   1.0000000
N2   N   0.555524331977398   0.944428832655363   0.875000000000000   1.0000000
N2   N   0.388850909742568   0.444428187328540   0.875000000000000   1.0000000
N2   N   0.888855010421185   0.944426153765071   0.875000000000000   1.0000000
N2   N   0.056766742475591   0.945257522727957   0.375000000000000   1.0000000
N2   N   0.722187154331173   0.444428378467126   0.875000000000000   1.0000000
N2   N   0.388477185293992   0.942876900379902   0.375000000000000   1.0000000
N2   N   0.225486674731950   0.446255495835590   0.375000000000000   1.0000000
N2   N   0.221497209422700   0.611664321722316   0.375000000000000   1.0000000
N2   N   0.724431623502350   0.946293424893981   0.375000000000000   1.0000000
N2   N   0.888433596979539   0.443870064314916   0.375000000000000   1.0000000
N2   N   0.055517426651075   0.611090846352878   0.875000000000000   1.0000000
N2   N   0.222182169069259   0.111091143623000   0.875000000000000   1.0000000
N2   N   0.722187154331173   0.611092109197386   0.875000000000000   1.0000000
N2   N   0.555522804052254   0.111097447106025   0.875000000000000   1.0000000
N2   N   0.888854704928089   0.111094019130716   0.875000000000000   1.0000000
B2   B   0.113667340769913   0.056867275943329   0.375000000000000   1.0000000
B2   B   0.612211612514466   0.569441317859408   0.375000000000000   1.0000000
B2   B   0.444943334090946   0.052562820344108   0.375000000000000   1.0000000
B2   B   0.943172289268116   0.554950348335826   0.375000000000000   1.0000000
B2   B   0.780833470512707   0.057083401923019   0.375000000000000   1.0000000
B2   B   0.111085893286861   0.722209613310095   0.875000000000000   1.0000000
B2   B   0.444401570701568   0.722213012318649   0.875000000000000   1.0000000
B2   B   0.277711065870968   0.222185322998480   0.875000000000000   1.0000000
B2   B   0.777766283177365   0.722234805760621   0.875000000000000   1.0000000
B2   B   0.611079606820796   0.222186270742271   0.875000000000000   1.0000000
B2   B   0.944412685896557   0.222199951233725   0.875000000000000   1.0000000
B2   B   0.277136855431596   0.722602653971641   0.375000000000000   1.0000000
B2   B   0.115125237426928   0.224229285380129   0.375000000000000   1.0000000
B2   B   0.444469711370004   0.215125467199142   0.375000000000000   1.0000000
B2   B   0.613460474438861   0.729610825199802   0.375000000000000   1.0000000
B2   B   0.943172289268116   0.721555274265626   0.375000000000000   1.0000000
B2   B   0.780515210979253   0.222062378394502   0.375000000000000   1.0000000
B2   B   0.111077905983197   0.888876074997366   0.875000000000000   1.0000000
B2   B   0.444410160927556   0.888871747130444   0.875000000000000   1.0000000
B2   B   0.277711065870968   0.388859076205818   0.875000000000000   1.0000000
B2   B   0.611074498950186   0.388864599712914   0.875000000000000   1.0000000
B2   B   0.777759245042619   0.888897699598583   0.875000000000000   1.0000000
B2   B   0.944423358410217   0.388864475941839   0.875000000000000   1.0000000
B2   B   0.113667340769913   0.390133398159912   0.375000000000000   1.0000000
B2   B   0.277136855431596   0.887867534793280   0.375000000000000   1.0000000
B2   B   0.613282782810080   0.891795386892450   0.375000000000000   1.0000000
B2   B   0.945685286345856   0.889977225659814   0.375000000000000   1.0000000
B2   B   0.778096413977962   0.387233567118277   0.375000000000000   1.0000000
B2   B   0.277723451896590   0.555534337766687   0.875000000000000   1.0000000
B2   B   0.111063239089893   0.055535161625496   0.875000000000000   1.0000000
B2   B   0.611074498950186   0.555543232570601   0.875000000000000   1.0000000
B2   B   0.444401570701568   0.055521891716251   0.875000000000000   1.0000000
B2   B   0.944433605212703   0.555542901628083   0.875000000000000   1.0000000
B2   B   0.110566977297296   0.555752220411481   0.375000000000000   1.0000000
B2   B   0.777755448461208   0.055544390897271   0.875000000000000   1.0000000
B2   B   0.277668329890326   0.053681570880895   0.375000000000000   1.0000000
B2   B   0.444469711370004   0.562677577504199   0.375000000000000   1.0000000
B2   B   0.775503861752541   0.554418597542937   0.375000000000000   1.0000000
B2   B   0.613282782810080   0.054820729250957   0.375000000000000   1.0000000
B2   B   0.444383979849849   0.555536395180224   0.875000000000000   1.0000000
B2   B   0.947715074073838   0.057543558731859   0.375000000000000   1.0000000
B2   B   0.277739512051878   0.722204929398455   0.875000000000000   1.0000000
B2   B   0.111056589087839   0.222194961210584   0.875000000000000   1.0000000
B2   B   0.444383979849849   0.222180918002960   0.875000000000000   1.0000000
B2   B   0.611079606820796   0.722226669411854   0.875000000000000   1.0000000
B2   B   0.944433605212703   0.722224036917958   0.875000000000000   1.0000000
B2   B   0.777759245042619   0.222194878777360   0.875000000000000   1.0000000
B2   B   0.109881382539366   0.721607357936352   0.375000000000000   1.0000000
B2   B   0.444943334090946   0.725713847080177   0.375000000000000   1.0000000
B2   B   0.281987107180290   0.224315560607906   0.375000000000000   1.0000000
B2   B   0.778096413977961   0.724196180193005   0.375000000000000   1.0000000
B2   B   0.613460474438860   0.217182982572388   0.375000000000000   1.0000000
B2   B   0.947715074073838   0.223504848675315   0.375000000000000   1.0000000
B2   B   0.111063239089893   0.388861410797727   0.875000000000000   1.0000000
B2   B   0.277739512051878   0.888867915986748   0.875000000000000   1.0000000
B2   B   0.611083960428051   0.888885086901984   0.875000000000000   1.0000000
B2   B   0.444381579959347   0.388857456646341   0.875000000000000   1.0000000
B2   B   0.944423358410217   0.888892215801704   0.875000000000000   1.0000000
B2   B   0.110566977297297   0.888148090219150   0.375000000000000   1.0000000
B2   B   0.777766283177365   0.388864810750067   0.875000000000000   1.0000000
B2   B   0.445026096278834   0.889179714806082   0.375000000000000   1.0000000
B2   B   0.281987107180289   0.391004879905711   0.375000000000000   1.0000000
B2   B   0.277668329890326   0.557320092342766   0.375000000000000   1.0000000
B2   B   0.612211612514467   0.376103627988393   0.375000000000000   1.0000000
B2   B   0.780515210979254   0.891786165918075   0.375000000000000   1.0000000
B2   B   0.945685286345856   0.389041394019369   0.375000000000000   1.0000000
B2   B   0.111077905983197   0.555535164319157   0.875000000000000   1.0000000
B2   B   0.277723451896590   0.055522447463242   0.875000000000000   1.0000000
B2   B   0.777768977360784   0.555551155347058   0.875000000000000   1.0000000
B2   B   0.611083960428051   0.055532206859394   0.875000000000000   1.0000000
B2   B   0.944412685896557   0.055546067996171   0.875000000000000   1.0000000
B2   B   0.055501774041129   0.111071897975698   0.124951076870695   1.0000000
B2   B   0.555435554172517   0.611145715692162   0.124367190296749   1.0000000
B2   B   0.388775173060688   0.110966994514936   0.124797124681517   1.0000000
B2   B   0.888949324408866   0.611141328871100   0.124895654955092   1.0000000
B2   B   0.722190303347152   0.111062453312166   0.124868934167077   1.0000000
B2   B   0.055572471222899   0.777777187545299   0.625087832638040   1.0000000
B2   B   0.388808720750561   0.777780525905595   0.625069476385401   1.0000000
B2   B   0.222100342507507   0.277716837920422   0.625364872871586   1.0000000
B2   B   0.722204163616566   0.777840598135685   0.625160807255961   1.0000000
B2   B   0.555435554172517   0.277623171813699   0.625632809703256   1.0000000
B2   B   0.888883060574980   0.277761006626960   0.625086999894702   1.0000000
B2   B   0.222183319071948   0.777758326202639   0.124924833945209   1.0000000
B2   B   0.055501774041129   0.277763209398765   0.124951076870695   1.0000000
B2   B   0.388713755545117   0.277657023881197   0.123809497370341   1.0000000
B2   B   0.555473624328334   0.777827735841593   0.124859736412523   1.0000000
B2   B   0.888922583938750   0.777808684697238   0.124920603129985   1.0000000
B2   B   0.722204163616567   0.277696898814217   0.124839192744039   1.0000000
B2   B   0.055533819529259   0.944410223258860   0.625042973313237   1.0000000
B2   B   0.388808720750561   0.944361528178292   0.625069476385401   1.0000000
B2   B   0.222121626136093   0.444443885366506   0.625132998542271   1.0000000
B2   B   0.555339652151304   0.444336492742316   0.626315599527209   1.0000000
B2   B   0.722190303347152   0.944461183368325   0.625131065832924   1.0000000
B2   B   0.888922583938750   0.444447232574849   0.625079396870013   1.0000000
B2   B   0.055533819529259   0.444456929603730   0.124957026686756   1.0000000
B2   B   0.222165116251167   0.944371657963047   0.124934903794675   1.0000000
B2   B   0.555489787279494   0.944411560306410   0.124885074530705   1.0000000
B2   B   0.388713755545118   0.444390064997257   0.123809497370341   1.0000000
B2   B   0.888883060574980   0.944455387281359   0.124913000105292   1.0000000
B2   B   0.722207589086974   0.444410583944368   0.124609747709015   1.0000000
B2   B   0.222165116251167   0.611126791621453   0.625065096205322   1.0000000
B2   B   0.055501774041129   0.111071897975698   0.625048923129305   1.0000000
B2   B   0.555435554172517   0.611145715692162   0.625632809703256   1.0000000
B2   B   0.388775173060688   0.110966994514936   0.625202875318483   1.0000000
B2   B   0.888949324408866   0.611141328871100   0.625104345044907   1.0000000
B2   B   0.055572471222899   0.611128617010938   0.124912167361956   1.0000000
B2   B   0.722190303347152   0.111062453312166   0.625131065832924   1.0000000
B2   B   0.222121626136093   0.111011074102924   0.124867001457728   1.0000000
B2   B   0.388775173060688   0.611141511879097   0.124797124681517   1.0000000
B2   B   0.722207589086974   0.611130338475941   0.124609747709015   1.0000000
B2   B   0.555473624328334   0.110979221820077   0.124859736412523   1.0000000
B2   B   0.388775173060688   0.611141511879097   0.625202875318483   1.0000000
B2   B   0.888866018124908   0.111099675729124   0.124906631013595   1.0000000
B2   B   0.222183319071948   0.777758326202639   0.625075166054796   1.0000000
B2   B   0.055501774041129   0.277763209398765   0.625048923129305   1.0000000
B2   B   0.388713755545117   0.277657023881197   0.626190502629664   1.0000000
B2   B   0.555473624328334   0.777827735841593   0.625140263587472   1.0000000
B2   B   0.888922583938750   0.777808684697238   0.625079396870013   1.0000000
B2   B   0.722204163616567   0.277696898814217   0.625160807255961   1.0000000
B2   B   0.055572471222899   0.777777187545299   0.124912167361956   1.0000000
B2   B   0.388808720750561   0.777780525905595   0.124930523614605   1.0000000
B2   B   0.222100342507507   0.277716837920422   0.124635127128415   1.0000000
B2   B   0.722204163616567   0.777840598135685   0.124839192744039   1.0000000
B2   B   0.555435554172517   0.277623171813699   0.124367190296749   1.0000000
B2   B   0.888883060574980   0.277761006626960   0.124913000105292   1.0000000
B2   B   0.055533819529259   0.444456929603728   0.625042973313237   1.0000000
B2   B   0.222165116251167   0.944371657963047   0.625065096205322   1.0000000
B2   B   0.555489787279494   0.944411560306410   0.625114925469296   1.0000000
B2   B   0.388713755545117   0.444390064997257   0.626190502629664   1.0000000
B2   B   0.888883060574980   0.944455387281359   0.625086999894702   1.0000000
B2   B   0.055533819529259   0.944410223258860   0.124957026686756   1.0000000
B2   B   0.722207589086974   0.444410583944368   0.625390252290985   1.0000000
B2   B   0.388808720750561   0.944361528178292   0.124930523614605   1.0000000
B2   B   0.222121626136093   0.444443885366506   0.124867001457728   1.0000000
B2   B   0.222165116251167   0.611126791621453   0.124934903794675   1.0000000
B2   B   0.555339652151304   0.444336492742316   0.123684400472786   1.0000000
B2   B   0.722190303347152   0.944461183368325   0.124868934167077   1.0000000
B2   B   0.888922583938750   0.444447232574849   0.124920603129985   1.0000000
B2   B   0.055572471222899   0.611128617010938   0.625087832638040   1.0000000
B2   B   0.222121626136093   0.111011074102924   0.625132998542271   1.0000000
B2   B   0.722207589086974   0.611130338475941   0.625390252290985   1.0000000
B2   B   0.555473624328334   0.110979221820077   0.625140263587472   1.0000000
B2   B   0.888866018124908   0.111099675729124   0.625093368986402   1.0000000


