data_1
_audit_creation_method   'vasp2cif'
_cell_length_a    14.93631414619966
_cell_length_b    14.936314146199727
_cell_length_c    13.341276283792837
_cell_angle_alpha    90.0
_cell_angle_beta    90.0
_cell_angle_gamma    119.99999999999984

_symmetry_space_group_name_H-M    'P 1'
loop_
_atom_site_label
_atom_site_type_symbol
_atom_site_fract_x
_atom_site_fract_y
_atom_site_fract_z
_atom_site_occupancy
C2   C   0.622326067521803   0.393984386329466   0.375000000000000   1.0000000
O2   O   0.426118961892367   0.382830747032045   0.375000000000000   1.0000000
N2   N   0.582613535658379   0.451238958661439   0.375000000000000   1.0000000
N2   N   0.111130576381931   0.055780417311011   0.124823223055471   1.0000000
N2   N   0.611286638688493   0.555938222593936   0.125835727139863   1.0000000
N2   N   0.444508909319052   0.055819003147334   0.125145151423795   1.0000000
N2   N   0.944496990496945   0.555758328449337   0.125075927697176   1.0000000
N2   N   0.777821975370433   0.055793093101279   0.124818121861823   1.0000000
N2   N   0.111168604318816   0.722434568179054   0.625085503440504   1.0000000
N2   N   0.444509001023351   0.722416629714963   0.624986684886868   1.0000000
N2   N   0.277764073730177   0.222435012092743   0.624707513797506   1.0000000
N2   N   0.777909511395792   0.722578493557564   0.625094311443384   1.0000000
N2   N   0.611181206756978   0.222469437466457   0.624481932594821   1.0000000
N2   N   0.944476016082988   0.222435418824250   0.625258951644676   1.0000000
N2   N   0.277836700797914   0.722425493290425   0.124883470131777   1.0000000
N2   N   0.111093420433264   0.222413612664960   0.124780726139897   1.0000000
N2   N   0.444504719131833   0.222511676647278   0.125824977430098   1.0000000
N2   N   0.611226532940435   0.722517411595903   0.125121369037940   1.0000000
N2   N   0.944511088280022   0.722463327977309   0.124985621462958   1.0000000
N2   N   0.777829434197888   0.222421294912285   0.124906172665923   1.0000000
N2   N   0.111172833653730   0.889127725399349   0.625118771321028   1.0000000
N2   N   0.444497145095158   0.889111046851510   0.625068247575139   1.0000000
N2   N   0.277792101128373   0.389053510548257   0.624706449924616   1.0000000
N2   N   0.611212368233334   0.389140697922515   0.623480631813973   1.0000000
N2   N   0.777867482559684   0.889204960306486   0.625221541703059   1.0000000
N2   N   0.944485940176263   0.389084155419729   0.625082901204851   1.0000000
N2   N   0.111144627327769   0.389083331444688   0.124823513798535   1.0000000
N2   N   0.277844826750799   0.889126608687324   0.124912962488469   1.0000000
N2   N   0.611165706874927   0.889128883641990   0.124906382668433   1.0000000
N2   N   0.444477677629536   0.389106932867988   0.126406828879176   1.0000000
N2   N   0.944523195197351   0.889175110365357   0.124803415204780   1.0000000
N2   N   0.777832295970435   0.389088003326579   0.125379038104949   1.0000000
N2   N   0.277839400473564   0.555740582989301   0.624978847226359   1.0000000
N2   N   0.111130576381931   0.055780417311011   0.625176776944534   1.0000000
N2   N   0.611286638688493   0.555938222593936   0.624164272860135   1.0000000
N2   N   0.444508909319052   0.055819003147334   0.624854848576210   1.0000000
N2   N   0.944496990496945   0.555758328449337   0.624924072302826   1.0000000
N2   N   0.111161909176103   0.555749432950409   0.124878280807317   1.0000000
N2   N   0.777821975370433   0.055793093101279   0.625181878138179   1.0000000
N2   N   0.277833262173173   0.055813283596485   0.125089236680288   1.0000000
N2   N   0.444531989951062   0.555754048476317   0.125663076390099   1.0000000
N2   N   0.777859134832456   0.555814398549752   0.125646730430824   1.0000000
N2   N   0.611154420829046   0.055784542063465   0.124995140701440   1.0000000
N2   N   0.444531989951062   0.555754048476317   0.624336923609901   1.0000000
N2   N   0.944480091507048   0.055807092190319   0.124734080178801   1.0000000
N2   N   0.277836700797914   0.722425493290425   0.625116529868221   1.0000000
N2   N   0.111093420433264   0.222413612664960   0.625219273860103   1.0000000
N2   N   0.444504719131833   0.222511676647278   0.624175022569903   1.0000000
N2   N   0.611226532940435   0.722517411595903   0.624878630962060   1.0000000
N2   N   0.944511088280022   0.722463327977309   0.625014378537042   1.0000000
N2   N   0.777829434197888   0.222421294912285   0.625093827334074   1.0000000
N2   N   0.111168604318816   0.722434568179054   0.124914496559497   1.0000000
N2   N   0.444509001023351   0.722416629714963   0.125013315113132   1.0000000
N2   N   0.277764073730177   0.222435012092743   0.125292486202499   1.0000000
N2   N   0.777909511395792   0.722578493557564   0.124905688556614   1.0000000
N2   N   0.611181206756978   0.222469437466457   0.125518067405181   1.0000000
N2   N   0.944476016082988   0.222435418824250   0.124741048355325   1.0000000
N2   N   0.111144627327769   0.389083331444688   0.625176486201464   1.0000000
N2   N   0.277844826750799   0.889126608687324   0.625087037511529   1.0000000
N2   N   0.611165706874927   0.889128883641990   0.625093617331569   1.0000000
N2   N   0.444477677629536   0.389106932867988   0.623593171120824   1.0000000
N2   N   0.944523195197351   0.889175110365357   0.625196584795220   1.0000000
N2   N   0.111172833653730   0.889127725399349   0.124881228678973   1.0000000
N2   N   0.777832295970435   0.389088003326579   0.624620961895052   1.0000000
N2   N   0.444497145095158   0.889111046851510   0.124931752424863   1.0000000
N2   N   0.277792101128373   0.389053510548257   0.125293550075389   1.0000000
N2   N   0.277839400473564   0.555740582989301   0.125021152773643   1.0000000
N2   N   0.611212368233334   0.389140697922515   0.126519368186023   1.0000000
N2   N   0.777867482559684   0.889204960306486   0.124778458296941   1.0000000
N2   N   0.944485940176263   0.389084155419729   0.124917098795149   1.0000000
N2   N   0.111161909176103   0.555749432950409   0.625121719192685   1.0000000
N2   N   0.277833262173173   0.055813283596485   0.624910763319710   1.0000000
N2   N   0.777859134832456   0.555814398549752   0.624353269569175   1.0000000
N2   N   0.611154420829046   0.055784542063465   0.625004859298561   1.0000000
N2   N   0.944480091507048   0.055807092190319   0.625265919821200   1.0000000
N2   N   0.051974117980593   0.108525182832394   0.375000000000000   1.0000000
N2   N   0.554669568692911   0.605196309846960   0.375000000000000   1.0000000
N2   N   0.390575578923365   0.116401371388789   0.375000000000000   1.0000000
N2   N   0.893207150910342   0.612384415110195   0.375000000000000   1.0000000
N2   N   0.720842899981486   0.109801853980598   0.375000000000000   1.0000000
N2   N   0.055538841542802   0.777685404922250   0.875000000000000   1.0000000
N2   N   0.388871002771188   0.777691720098136   0.875000000000000   1.0000000
N2   N   0.222203838708094   0.277685184088906   0.875000000000000   1.0000000
N2   N   0.722189809412233   0.777667612800487   0.875000000000000   1.0000000
N2   N   0.555532228713329   0.277683484792391   0.875000000000000   1.0000000
N2   N   0.888873375511170   0.277696095168181   0.875000000000000   1.0000000
N2   N   0.224003815536370   0.779091308904570   0.375000000000000   1.0000000
N2   N   0.051745148519645   0.275975070670985   0.375000000000000   1.0000000
N2   N   0.378460656629548   0.274478549397432   0.375000000000000   1.0000000
N2   N   0.554606378164655   0.774712377588506   0.375000000000000   1.0000000
N2   N   0.892060529710137   0.779289668451515   0.375000000000000   1.0000000
N2   N   0.723148576063408   0.277491862734023   0.375000000000000   1.0000000
N2   N   0.055534612068848   0.944343844189217   0.875000000000000   1.0000000
N2   N   0.388875690354534   0.944359845558261   0.875000000000000   1.0000000
N2   N   0.222207162669171   0.444359887625101   0.875000000000000   1.0000000
N2   N   0.555528927086035   0.444345777917406   0.875000000000000   1.0000000
N2   N   0.722193815004371   0.944341019687204   0.875000000000000   1.0000000
N2   N   0.888869003684126   0.444358760701669   0.875000000000000   1.0000000
N2   N   0.054834840809991   0.444439856864764   0.375000000000000   1.0000000
N2   N   0.223959329641175   0.946352052340304   0.375000000000000   1.0000000
N2   N   0.554970059480467   0.943732226124728   0.375000000000000   1.0000000
N2   N   0.374584669573019   0.439007787647300   0.375000000000000   1.0000000
N2   N   0.887180322102112   0.942498920564953   0.375000000000000   1.0000000
N2   N   0.729923843633367   0.444497048854532   0.375000000000000   1.0000000
N2   N   0.222203754510550   0.611027888678092   0.875000000000000   1.0000000
N2   N   0.055534542733597   0.111012986258243   0.875000000000000   1.0000000
N2   N   0.555520412447881   0.610999464456986   0.875000000000000   1.0000000
N2   N   0.388872144510996   0.111019667570309   0.875000000000000   1.0000000
N2   N   0.888869049145798   0.611015632775482   0.875000000000000   1.0000000
N2   N   0.058082659085544   0.612350438067511   0.375000000000000   1.0000000
N2   N   0.722194716405508   0.111012390626465   0.875000000000000   1.0000000
N2   N   0.219323351390327   0.109360149448789   0.375000000000000   1.0000000
N2   N   0.387768653086528   0.608033615691420   0.375000000000000   1.0000000
N2   N   0.730530944695766   0.615604227276076   0.375000000000000   1.0000000
N2   N   0.555540769970743   0.112716077288708   0.375000000000000   1.0000000
N2   N   0.388868275952604   0.611016661880478   0.875000000000000   1.0000000
N2   N   0.886247887323867   0.108985721441416   0.375000000000000   1.0000000
N2   N   0.222207442032627   0.777693956946160   0.875000000000000   1.0000000
N2   N   0.055541364335046   0.277693835020706   0.875000000000000   1.0000000
N2   N   0.388864000681321   0.277677805379054   0.875000000000000   1.0000000
N2   N   0.555527574269228   0.777674010656267   0.875000000000000   1.0000000
N2   N   0.888870602362213   0.777677033863802   0.875000000000000   1.0000000
N2   N   0.722200328658197   0.277681700151955   0.875000000000000   1.0000000
N2   N   0.058161615328338   0.779221889321095   0.375000000000000   1.0000000
N2   N   0.389272573478862   0.777313139474224   0.375000000000000   1.0000000
N2   N   0.214843110879582   0.274241521907867   0.375000000000000   1.0000000
N2   N   0.721526271014265   0.775643798860269   0.375000000000000   1.0000000
N2   N   0.560321481808223   0.284298424474930   0.375000000000000   1.0000000
N2   N   0.887646999702648   0.276717572543764   0.375000000000000   1.0000000
N2   N   0.055537631531905   0.444365021927785   0.875000000000000   1.0000000
N2   N   0.222206309771947   0.944353294185994   0.875000000000000   1.0000000
N2   N   0.555531483887658   0.944349978611502   0.875000000000000   1.0000000
N2   N   0.388868001093535   0.444346046191964   0.875000000000000   1.0000000
N2   N   0.888866712737268   0.944343093108546   0.875000000000000   1.0000000
N2   N   0.055660845258484   0.944224916943892   0.375000000000000   1.0000000
N2   N   0.722196419124781   0.444347558622751   0.875000000000000   1.0000000
N2   N   0.389778084242645   0.946353677480655   0.375000000000000   1.0000000
N2   N   0.217091474233440   0.443470346634875   0.375000000000000   1.0000000
N2   N   0.222732119201233   0.611436035718127   0.375000000000000   1.0000000
N2   N   0.720441055485565   0.942256185091927   0.375000000000000   1.0000000
N2   N   0.892235033306704   0.445218294378593   0.375000000000000   1.0000000
N2   N   0.055536549491947   0.611024300138759   0.875000000000000   1.0000000
N2   N   0.222198405048163   0.111008773937607   0.875000000000000   1.0000000
N2   N   0.722200783372570   0.611006630577762   0.875000000000000   1.0000000
N2   N   0.555535171315779   0.111018649850193   0.875000000000000   1.0000000
N2   N   0.888869225487061   0.111017788831195   0.875000000000000   1.0000000
B2   B   0.109033434652039   0.054352926211410   0.375000000000000   1.0000000
B2   B   0.618591312870505   0.553582331463016   0.375000000000000   1.0000000
B2   B   0.444568879660870   0.058544353326110   0.375000000000000   1.0000000
B2   B   0.947473060856726   0.556419288303861   0.375000000000000   1.0000000
B2   B   0.775428028037318   0.053289950516701   0.375000000000000   1.0000000
B2   B   0.111081343571222   0.722133080890392   0.875000000000000   1.0000000
B2   B   0.444431274140184   0.722099928563057   0.875000000000000   1.0000000
B2   B   0.277813061814923   0.222160639964294   0.875000000000000   1.0000000
B2   B   0.777714153658014   0.722061490971270   0.875000000000000   1.0000000
B2   B   0.611071392084266   0.222170465117411   0.875000000000000   1.0000000
B2   B   0.944429647402323   0.222142222328326   0.875000000000000   1.0000000
B2   B   0.278547423179627   0.722545301742965   0.375000000000000   1.0000000
B2   B   0.105575278329593   0.219114032002488   0.375000000000000   1.0000000
B2   B   0.447078067861820   0.230575375463551   0.375000000000000   1.0000000
B2   B   0.609267571887113   0.716699007761973   0.375000000000000   1.0000000
B2   B   0.947128322454076   0.723337425236501   0.375000000000000   1.0000000
B2   B   0.776769968957894   0.220986276506180   0.375000000000000   1.0000000
B2   B   0.111091505688854   0.888792796420115   0.875000000000000   1.0000000
B2   B   0.444429166711351   0.888801337551283   0.875000000000000   1.0000000
B2   B   0.277821277829225   0.388810408827612   0.875000000000000   1.0000000
B2   B   0.611062111840650   0.388821235516328   0.875000000000000   1.0000000
B2   B   0.777729269374774   0.888737866727442   0.875000000000000   1.0000000
B2   B   0.944409040460616   0.388814446539029   0.875000000000000   1.0000000
B2   B   0.107442833644087   0.387294855364763   0.375000000000000   1.0000000
B2   B   0.279026882292851   0.890399526406094   0.375000000000000   1.0000000
B2   B   0.609504575681201   0.886300088274184   0.375000000000000   1.0000000
B2   B   0.944894617204274   0.888894923479429   0.375000000000000   1.0000000
B2   B   0.782238094080772   0.388708968637354   0.375000000000000   1.0000000
B2   B   0.277791261856534   0.555466246086157   0.875000000000000   1.0000000
B2   B   0.111109972088996   0.055463138926782   0.875000000000000   1.0000000
B2   B   0.611067058660633   0.555411062596207   0.875000000000000   1.0000000
B2   B   0.444435295473771   0.055503665234753   0.875000000000000   1.0000000
B2   B   0.944386438214653   0.555462001224019   0.875000000000000   1.0000000
B2   B   0.111953703064179   0.555724495310033   0.375000000000000   1.0000000
B2   B   0.777739974164027   0.055446378902589   0.875000000000000   1.0000000
B2   B   0.279044484835844   0.057978684703945   0.375000000000000   1.0000000
B2   B   0.442955989580644   0.550302515954320   0.375000000000000   1.0000000
B2   B   0.782316088961913   0.556677264273646   0.375000000000000   1.0000000
B2   B   0.609918291297431   0.055368209718737   0.375000000000000   1.0000000
B2   B   0.444453303527469   0.555428679853156   0.875000000000000   1.0000000
B2   B   0.941366713954630   0.052985327789109   0.375000000000000   1.0000000
B2   B   0.277770063394859   0.722136772464163   0.875000000000000   1.0000000
B2   B   0.111131139377098   0.222144530554088   0.875000000000000   1.0000000
B2   B   0.444448229932290   0.222181226987232   0.875000000000000   1.0000000
B2   B   0.611069216960816   0.722054637244406   0.875000000000000   1.0000000
B2   B   0.944389356647842   0.722099995453331   0.875000000000000   1.0000000
B2   B   0.777734703360328   0.222145020005042   0.875000000000000   1.0000000
B2   B   0.113243808255523   0.723455618504213   0.375000000000000   1.0000000
B2   B   0.443737296896249   0.719739073921848   0.375000000000000   1.0000000
B2   B   0.270591034526842   0.219265703285559   0.375000000000000   1.0000000
B2   B   0.781172196168693   0.723416063037722   0.375000000000000   1.0000000
B2   B   0.611772448652845   0.224409592363561   0.375000000000000   1.0000000
B2   B   0.941401433407629   0.220073200429400   0.375000000000000   1.0000000
B2   B   0.111120383955312   0.388818096947725   0.875000000000000   1.0000000
B2   B   0.277771023554122   0.888818760768836   0.875000000000000   1.0000000
B2   B   0.611073423893821   0.888758882950666   0.875000000000000   1.0000000
B2   B   0.444470533794485   0.388814088266111   0.875000000000000   1.0000000
B2   B   0.944404778325243   0.888758120362170   0.875000000000000   1.0000000
B2   B   0.112768719945512   0.890219254311250   0.375000000000000   1.0000000
B2   B   0.777710614906923   0.388812679706844   0.875000000000000   1.0000000
B2   B   0.444240375054657   0.889015361340907   0.375000000000000   1.0000000
B2   B   0.267634452357202   0.384674833138139   0.375000000000000   1.0000000
B2   B   0.276701761524745   0.554485089862586   0.375000000000000   1.0000000
B2   B   0.775729853119028   0.886001526252146   0.375000000000000   1.0000000
B2   B   0.944667449121712   0.388171110366646   0.375000000000000   1.0000000
B2   B   0.111093105613981   0.555475580776578   0.875000000000000   1.0000000
B2   B   0.277785640164521   0.055494020173130   0.875000000000000   1.0000000
B2   B   0.777703511853224   0.555437321336632   0.875000000000000   1.0000000
B2   B   0.611077593117025   0.055471861015920   0.875000000000000   1.0000000
B2   B   0.944424471075895   0.055445388587309   0.875000000000000   1.0000000
B2   B   0.055593362269861   0.111345807681086   0.124944448805915   1.0000000
B2   B   0.555752851315947   0.611253910462652   0.126173838887366   1.0000000
B2   B   0.389044963467953   0.111569630764872   0.125644858927400   1.0000000
B2   B   0.888775395961073   0.611263292960761   0.125481687724458   1.0000000
B2   B   0.722276534947558   0.111365049987274   0.125063032216834   1.0000000
B2   B   0.055545890246515   0.777986558556415   0.624919129804027   1.0000000
B2   B   0.389001238077263   0.777961781298969   0.624909858199219   1.0000000
B2   B   0.222324389161200   0.278007445297226   0.624685967085835   1.0000000
B2   B   0.722299295885052   0.777986186183104   0.624733770265043   1.0000000
B2   B   0.555666271583239   0.278269442211179   0.623401761550586   1.0000000
B2   B   0.888890941059623   0.277974133197361   0.624988799914714   1.0000000
B2   B   0.222285629573500   0.778004281739890   0.125046228548855   1.0000000
B2   B   0.055592250162432   0.277970125303053   0.124929962332648   1.0000000
B2   B   0.389102868580874   0.278278739453333   0.126486451480744   1.0000000
B2   B   0.555687663717480   0.777943585781238   0.125248794810873   1.0000000
B2   B   0.888848683356503   0.777987985862028   0.125147781530809   1.0000000
B2   B   0.722222868589176   0.278060385399613   0.125500061853106   1.0000000
B2   B   0.055584415990840   0.944702572336921   0.625001883593950   1.0000000
B2   B   0.388993073093726   0.944758359526433   0.624852949678246   1.0000000
B2   B   0.222345452901085   0.444598752616820   0.624799743282326   1.0000000
B2   B   0.555643723999861   0.444768862622665   0.621551119219207   1.0000000
B2   B   0.722292644008208   0.944664474465455   0.624971587599609   1.0000000
B2   B   0.888815471457635   0.444624985920954   0.624676210470994   1.0000000
B2   B   0.055585125905993   0.444618857206263   0.125008132713661   1.0000000
B2   B   0.222309512946874   0.944754498051913   0.125109815279292   1.0000000
B2   B   0.555641706619606   0.944686224056654   0.125100226802503   1.0000000
B2   B   0.389128478945254   0.444593942078056   0.126436294297689   1.0000000
B2   B   0.888914742288645   0.944671892317353   0.124982339863287   1.0000000
B2   B   0.722105874712990   0.444672381156223   0.126475484630039   1.0000000
B2   B   0.222310564041395   0.611272792045606   0.624939550851239   1.0000000
B2   B   0.055593362269861   0.111345807681086   0.625055551194087   1.0000000
B2   B   0.555752851315947   0.611253910462652   0.623826161112635   1.0000000
B2   B   0.389044963467953   0.111569630764872   0.624355141072598   1.0000000
B2   B   0.888775395961073   0.611263292960761   0.624518312275539   1.0000000
B2   B   0.055540929449488   0.611284954480401   0.125094010308882   1.0000000
B2   B   0.722276534947558   0.111365049987274   0.624936967783167   1.0000000
B2   B   0.222327792446930   0.111462455937049   0.125237826413694   1.0000000
B2   B   0.389063570890732   0.611216076218615   0.125458026027122   1.0000000
B2   B   0.722158661516471   0.611315216531636   0.126091409827061   1.0000000
B2   B   0.555638946571701   0.111477336459690   0.125418084534565   1.0000000
B2   B   0.389063570890732   0.611216076218615   0.624541973972877   1.0000000
B2   B   0.888916915262039   0.111331021573488   0.124935174296880   1.0000000
B2   B   0.222285629573500   0.778004281739890   0.624953771451147   1.0000000
B2   B   0.055592250162432   0.277970125303053   0.625070037667350   1.0000000
B2   B   0.389102868580874   0.278278739453333   0.623513548519256   1.0000000
B2   B   0.555687663717480   0.777943585781238   0.624751205189123   1.0000000
B2   B   0.888848683356503   0.777987985862028   0.624852218469191   1.0000000
B2   B   0.722222868589176   0.278060385399613   0.624499938146895   1.0000000
B2   B   0.055545890246515   0.777986558556415   0.125080870195972   1.0000000
B2   B   0.389001238077263   0.777961781298969   0.125090141800784   1.0000000
B2   B   0.222324389161200   0.278007445297226   0.125314032914165   1.0000000
B2   B   0.722299295885052   0.777986186183104   0.125266229734956   1.0000000
B2   B   0.555666271583239   0.278269442211179   0.126598238449419   1.0000000
B2   B   0.888890941059623   0.277974133197361   0.125011200085288   1.0000000
B2   B   0.055585125905993   0.444618857206263   0.624991867286340   1.0000000
B2   B   0.222309512946874   0.944754498051913   0.624890184720708   1.0000000
B2   B   0.555641706619606   0.944686224056654   0.624899773197496   1.0000000
B2   B   0.389128478945254   0.444593942078056   0.623563705702314   1.0000000
B2   B   0.888914742288645   0.944671892317353   0.625017660136711   1.0000000
B2   B   0.055584415990840   0.944702572336921   0.124998116406049   1.0000000
B2   B   0.722105874712990   0.444672381156223   0.623524515369962   1.0000000
B2   B   0.388993073093726   0.944758359526433   0.125147050321753   1.0000000
B2   B   0.222345452901085   0.444598752616820   0.125200256717671   1.0000000
B2   B   0.222310564041395   0.611272792045606   0.125060449148757   1.0000000
B2   B   0.555643723999861   0.444768862622665   0.128448880780796   1.0000000
B2   B   0.722292644008208   0.944664474465455   0.125028412400392   1.0000000
B2   B   0.888815471457635   0.444624985920954   0.125323789529006   1.0000000
B2   B   0.055540929449488   0.611284954480401   0.624905989691119   1.0000000
B2   B   0.222327792446930   0.111462455937049   0.624762173586309   1.0000000
B2   B   0.722158661516471   0.611315216531636   0.623908590172936   1.0000000
B2   B   0.555638946571701   0.111477336459690   0.624581915465437   1.0000000
B2   B   0.888916915262039   0.111331021573488   0.625064825703123   1.0000000


