data_1
_audit_creation_method   'vasp2cif'
_cell_length_a    17.52789999999977
_cell_length_b    17.52789999999977
_cell_length_c    15.0
_cell_angle_alpha    90.0
_cell_angle_beta    90.0
_cell_angle_gamma    119.99999999999916

_symmetry_space_group_name_H-M    'P 1'
loop_
_atom_site_label
_atom_site_type_symbol
_atom_site_fract_x
_atom_site_fract_y
_atom_site_fract_z
_atom_site_occupancy
B2   B   0.904921160617283   0.953582759381377   0.111016374416077   1.0000000
B2   B   0.906240268320226   0.097438804719683   0.111219565567199   1.0000000
B2   B   0.906202782858548   0.240176115725857   0.111045526201828   1.0000000
B2   B   0.905394348770463   0.382391791507945   0.110769046519733   1.0000000
B2   B   0.904091981091856   0.524426348552953   0.110922114921391   1.0000000
B2   B   0.901835786463250   0.666545828618280   0.111080905360206   1.0000000
B2   B   0.903283944946390   0.809672450548474   0.111030028606706   1.0000000
B2   B   0.046609498169665   0.951450541536752   0.110898676583763   1.0000000
B2   B   0.047745607340335   0.095235838558860   0.111041173175862   1.0000000
B2   B   0.049184085239312   0.239456088229932   0.110921372966324   1.0000000
B2   B   0.049488023454149   0.382460876748373   0.110750229469426   1.0000000
B2   B   0.048593829634431   0.524475143089189   0.110867637909321   1.0000000
B2   B   0.046858887380749   0.666154062953120   0.110953141182907   1.0000000
B2   B   0.046029769949174   0.808250349428745   0.110909842660938   1.0000000
B2   B   0.188882901615373   0.949952064661549   0.110887536348971   1.0000000
B2   B   0.189368486034266   0.093047361483700   0.111011826860829   1.0000000
B2   B   0.190364741542738   0.236681395499891   0.110828056392763   1.0000000
B2   B   0.193003117118275   0.381900639862446   0.110726243315892   1.0000000
B2   B   0.193264963069472   0.524794459920597   0.110972126504111   1.0000000
B2   B   0.192129160798356   0.666329182550234   0.111135805051164   1.0000000
B2   B   0.189770670481197   0.808005627005178   0.110937474697664   1.0000000
B2   B   0.332439826219095   0.950268484713012   0.110962865888956   1.0000000
B2   B   0.331194229850625   0.091116180617889   0.111201858435099   1.0000000
B2   B   0.331871004101227   0.233151003216275   0.111033887772675   1.0000000
B2   B   0.333218455355920   0.376975330495559   0.110909065902807   1.0000000
B2   B   0.337781529940171   0.526460412415448   0.111066851165980   1.0000000
B2   B   0.338477845553849   0.667364667823996   0.111188753054718   1.0000000
B2   B   0.333792284882981   0.808774355561455   0.111029621313621   1.0000000
B2   B   0.476312717353532   0.952570504682581   0.110831145472476   1.0000000
B2   B   0.475274561846074   0.093667927708802   0.111099288892171   1.0000000
B2   B   0.472962889637366   0.233102859916093   0.111026616967496   1.0000000
B2   B   0.488523208762626   0.671729760772866   0.111029997503484   1.0000000
B2   B   0.477571012616352   0.811272100368377   0.110728522493485   1.0000000
B2   B   0.620137636029140   0.955633505921843   0.110742975004749   1.0000000
B2   B   0.619331407892470   0.096539376700753   0.111092649958111   1.0000000
B2   B   0.618431241595199   0.237730972514920   0.111289291913271   1.0000000
B2   B   0.616246671342622   0.379198490709781   0.111457997206276   1.0000000
B2   B   0.607963672329450   0.672076064201641   0.111041526230299   1.0000000
B2   B   0.621564157460469   0.816118083826652   0.110568770235906   1.0000000
B2   B   0.763734109018341   0.955974473396851   0.110897941332164   1.0000000
B2   B   0.763194508586373   0.097857258405835   0.111193224915607   1.0000000
B2   B   0.762526952822912   0.239822312026003   0.111145479326682   1.0000000
B2   B   0.761134320458446   0.381835674876052   0.111213022510935   1.0000000
B2   B   0.760149762702416   0.525367699590636   0.111436995549838   1.0000000
B2   B   0.756807599055054   0.667654011926004   0.111147332651770   1.0000000
B2   B   0.761452703077456   0.812049401719847   0.110856181233259   1.0000000
C2   C   0.474287223358957   0.373765602023448   0.111324617750038   1.0000000
C2   C   0.466932428593692   0.498770198584065   0.111599634176948   1.0000000
C2   C   0.515504184781498   0.465697404005856   0.112010082325768   1.0000000
N2   N   0.951528793086936   0.904910099320604   0.110943547698721   1.0000000
N2   N   0.953024020638112   0.048882295808683   0.111199364200799   1.0000000
N2   N   0.954212011473344   0.192691420327453   0.111077546393910   1.0000000
N2   N   0.954053293890755   0.335336170280457   0.110715140521819   1.0000000
N2   N   0.952876408010484   0.477401766361306   0.110744696145778   1.0000000
N2   N   0.950813499729722   0.619352566801742   0.110929126522640   1.0000000
N2   N   0.950453575074656   0.761539643320035   0.111062863124750   1.0000000
N2   N   0.093901538330978   0.903438899054167   0.110789957264162   1.0000000
N2   N   0.094786888295745   0.046961864477093   0.110928846198986   1.0000000
N2   N   0.096129902845908   0.190840561222765   0.110921275686648   1.0000000
N2   N   0.098037392580487   0.335045429951297   0.110711039946029   1.0000000
N2   N   0.097787005607032   0.477578606026903   0.110831375376097   1.0000000
N2   N   0.096255981572625   0.619327703465753   0.110993374033195   1.0000000
N2   N   0.094393807463419   0.761079624671235   0.110901852737298   1.0000000
N2   N   0.237266508230322   0.903112515619881   0.110804806946530   1.0000000
N2   N   0.236684193994783   0.045326667413840   0.111044847008633   1.0000000
N2   N   0.237999350125838   0.189057172084232   0.110949464770803   1.0000000
N2   N   0.239852723509340   0.332488630331607   0.110656553905727   1.0000000
N2   N   0.242785971277015   0.477715901639515   0.110846216150905   1.0000000
N2   N   0.242254223402010   0.619610025010239   0.111168965757609   1.0000000
N2   N   0.238651672175295   0.761174610564036   0.111139236117105   1.0000000
N2   N   0.381017689954150   0.903843463583282   0.110856694393857   1.0000000
N2   N   0.380040125348301   0.045546093111803   0.111166960741460   1.0000000
N2   N   0.379023813970650   0.186631803940367   0.111233434809460   1.0000000
N2   N   0.383210353870871   0.330137142983161   0.110981794025228   1.0000000
N2   N   0.382451664555374   0.474137653421470   0.111072658849002   1.0000000
N2   N   0.390833635765845   0.620849517388550   0.111286240837341   1.0000000
N2   N   0.382843734664415   0.761959223235745   0.111020597374211   1.0000000
N2   N   0.524778952855682   0.906183079507247   0.110616582475178   1.0000000
N2   N   0.523830473895524   0.047756611055708   0.110991023084354   1.0000000
N2   N   0.522694707450595   0.189248453701608   0.111034927692946   1.0000000
N2   N   0.518643728918239   0.329529433693167   0.110866247396811   1.0000000
N2   N   0.526645019726708   0.765039910631959   0.110531768352577   1.0000000
N2   N   0.668669517036120   0.909582950963303   0.110602585855367   1.0000000
N2   N   0.667713420399492   0.050248430551298   0.111028946961530   1.0000000
N2   N   0.666816742066036   0.191623296409040   0.111241982199054   1.0000000
N2   N   0.664865178983583   0.332666438507688   0.111526010714108   1.0000000
N2   N   0.667003468512758   0.470518021341604   0.112198740774187   1.0000000
N2   N   0.662242828693313   0.633793341344079   0.111111344538263   1.0000000
N2   N   0.666128898223223   0.766884241935866   0.110705300137716   1.0000000
N2   N   0.809916651531036   0.907148548749068   0.110838828261287   1.0000000
N2   N   0.811212202069754   0.050710519401438   0.111214799064197   1.0000000
N2   N   0.810788928406173   0.192879113330445   0.111237751455765   1.0000000
N2   N   0.809659786866362   0.334906854335065   0.110861628862990   1.0000000
N2   N   0.808217783522717   0.476935756774791   0.111098738856030   1.0000000
N2   N   0.805177977747794   0.619891393438979   0.111186575870897   1.0000000
N2   N   0.807527748287692   0.763249956369742   0.110985673412431   1.0000000


