data_1
_audit_creation_method   'vasp2cif'
_cell_length_a    17.52789999999977
_cell_length_b    17.52789999999977
_cell_length_c    15.0
_cell_angle_alpha    90.0
_cell_angle_beta    90.0
_cell_angle_gamma    119.99999999999916

_symmetry_space_group_name_H-M    'P 1'
loop_
_atom_site_label
_atom_site_type_symbol
_atom_site_fract_x
_atom_site_fract_y
_atom_site_fract_z
_atom_site_occupancy
B2   B   0.903995154500126   0.953396683912912   0.105698154100484   1.0000000
B2   B   0.903585463108099   0.096020265643131   0.103559048061127   1.0000000
B2   B   0.903355200665912   0.238641708024590   0.103283643863046   1.0000000
B2   B   0.903359538944658   0.381193966234492   0.107066335246600   1.0000000
B2   B   0.903951638759625   0.523861104587910   0.113875032367666   1.0000000
B2   B   0.901686052254208   0.665941822612718   0.114356767391710   1.0000000
B2   B   0.901861913913021   0.808768024706175   0.109572555821084   1.0000000
B2   B   0.045143376569623   0.951146444249036   0.103306306362868   1.0000000
B2   B   0.045708765857335   0.094680974510712   0.103170931537318   1.0000000
B2   B   0.045916680910497   0.238029303680223   0.102700842951443   1.0000000
B2   B   0.046180406604196   0.380994362365596   0.102491534162095   1.0000000
B2   B   0.046442457372455   0.523606623871946   0.103870161356262   1.0000000
B2   B   0.045631103244901   0.665981751872437   0.105155343515635   1.0000000
B2   B   0.044858108017453   0.808158940749086   0.103814146524650   1.0000000
B2   B   0.187970089361023   0.950779072731416   0.101639508335547   1.0000000
B2   B   0.187689945894311   0.093326676756416   0.103158026874395   1.0000000
B2   B   0.187406740856577   0.236260931529559   0.104436991447489   1.0000000
B2   B   0.188600698253058   0.380361994986453   0.102567866091095   1.0000000
B2   B   0.189606420653461   0.523306865259131   0.102353396809759   1.0000000
B2   B   0.189219671460431   0.665945553252555   0.102429899666345   1.0000000
B2   B   0.188399136984357   0.808356661012164   0.101853782408213   1.0000000
B2   B   0.331157505569527   0.951112306198324   0.102089623523138   1.0000000
B2   B   0.330784852680793   0.093363250603801   0.104821508005184   1.0000000
B2   B   0.329540414211227   0.234895405367234   0.110296623566254   1.0000000
B2   B   0.328792839205686   0.378750232045151   0.106568106231521   1.0000000
B2   B   0.333386652101589   0.522122657695477   0.103044160419334   1.0000000
B2   B   0.332807813604153   0.665892625154303   0.104313525134337   1.0000000
B2   B   0.331722400486870   0.808713409743115   0.103063351876898   1.0000000
B2   B   0.474371767249461   0.952485226365177   0.103215420973079   1.0000000
B2   B   0.473907995705532   0.094302333534470   0.105553002922229   1.0000000
B2   B   0.473107647897229   0.235565273915445   0.118384757994450   1.0000000
B2   B   0.469802752820556   0.374771856136454   0.129215096330377   1.0000000
B2   B   0.476303450264954   0.669257873094999   0.115600763660649   1.0000000
B2   B   0.475016125913366   0.810812666365830   0.107199762894576   1.0000000
B2   B   0.617783765244475   0.954230500856310   0.105395561005208   1.0000000
B2   B   0.617272841242313   0.095730073199623   0.103836101710399   1.0000000
B2   B   0.616785101593911   0.237007717260597   0.114490472314707   1.0000000
B2   B   0.614280927616198   0.373664072725333   0.145856896436254   1.0000000
B2   B   0.623475931497710   0.676835888533727   0.124839907915571   1.0000000
B2   B   0.618754176528346   0.813685053401089   0.114478392161981   1.0000000
B2   B   0.761296875998140   0.954457566610549   0.106996604342167   1.0000000
B2   B   0.760609264362120   0.096376781591455   0.103501008476019   1.0000000
B2   B   0.760264126112214   0.238506722649729   0.106874162321975   1.0000000
B2   B   0.760657033805056   0.380564792882041   0.122990202748256   1.0000000
B2   B   0.766498857414315   0.526561811039965   0.141824881170956   1.0000000
B2   B   0.754809440633900   0.665326920550952   0.121312703979874   1.0000000
B2   B   0.762790422879278   0.813170756397685   0.114461469110588   1.0000000
Sn2   Sn   0.513005190244446   0.512958762612589   0.099617568391851   1.0000000
N2   N   0.950309266767403   0.904264796166881   0.105714314888602   1.0000000
N2   N   0.951113227076694   0.048272789977697   0.103765303083627   1.0000000
N2   N   0.950824256311124   0.191060437119873   0.102895700012325   1.0000000
N2   N   0.950691096533378   0.333725193759201   0.103541329936933   1.0000000
N2   N   0.950814897181058   0.476164912612143   0.107027186024932   1.0000000
N2   N   0.949899438671047   0.618473122318236   0.110726023957453   1.0000000
N2   N   0.949510170973296   0.760679889310594   0.107706790487849   1.0000000
N2   N   0.092762467084963   0.903391352012176   0.102204745733445   1.0000000
N2   N   0.092821626284779   0.046363926104399   0.102774669895520   1.0000000
N2   N   0.092752925747638   0.189519481246505   0.103240307594124   1.0000000
N2   N   0.093250427620925   0.333050816894988   0.102089336806564   1.0000000
N2   N   0.093872577337578   0.476034108787019   0.102486819975029   1.0000000
N2   N   0.093517705864977   0.618595618653747   0.103360955019965   1.0000000
N2   N   0.092954418193435   0.760899422006781   0.102924625935451   1.0000000
N2   N   0.235950037760392   0.903582638615077   0.101368309433371   1.0000000
N2   N   0.235761120586547   0.046066815352311   0.102455569800245   1.0000000
N2   N   0.235063358739853   0.188241066779386   0.105123702942226   1.0000000
N2   N   0.234077372501161   0.330545561401780   0.104546943556438   1.0000000
N2   N   0.236770335842713   0.475516327540127   0.102427551800839   1.0000000
N2   N   0.237029129280891   0.618594810235457   0.102455236530034   1.0000000
N2   N   0.236329919151685   0.761161378458022   0.102309309881034   1.0000000
N2   N   0.379135727816510   0.904230480516333   0.102626655426498   1.0000000
N2   N   0.378895693547386   0.046557204734554   0.103464417198837   1.0000000
N2   N   0.378654896611773   0.188678646974858   0.110298473068038   1.0000000
N2   N   0.377015748017711   0.329513859997857   0.115198641915128   1.0000000
N2   N   0.376029953665428   0.470898891619777   0.101243242263611   1.0000000
N2   N   0.380691847287882   0.618662268111343   0.106475664716640   1.0000000
N2   N   0.379592967890192   0.761725376454194   0.104904034172460   1.0000000
N2   N   0.522525758994297   0.906176835372196   0.104951824717743   1.0000000
N2   N   0.522073017117271   0.047904110044538   0.103284397669538   1.0000000
N2   N   0.521761919830141   0.189808846006186   0.112192746972311   1.0000000
N2   N   0.521019885010738   0.331083220989291   0.134674208085448   1.0000000
N2   N   0.645819802792292   0.498365390940936   0.243195715752720   1.0000000
N2   N   0.529774188303756   0.631111922960736   0.127392903670097   1.0000000
N2   N   0.523321865120346   0.765178956866466   0.112701942113610   1.0000000
N2   N   0.666233954914372   0.908277980655841   0.108514932740820   1.0000000
N2   N   0.665416144457137   0.049300855515111   0.103394591047508   1.0000000
N2   N   0.664945066513577   0.191080227424950   0.106542760207989   1.0000000
N2   N   0.664534118397983   0.332309690739085   0.127535264809444   1.0000000
N2   N   0.670575646785233   0.470026946919133   0.181150344492756   1.0000000
N2   N   0.662054144699937   0.622304213763419   0.121268109375363   1.0000000
N2   N   0.669407621652649   0.770330825328820   0.120627077475631   1.0000000
N2   N   0.809776262742696   0.907721255194324   0.108140550808013   1.0000000
N2   N   0.808595153866952   0.049399376597497   0.104258789459716   1.0000000
N2   N   0.808044394437776   0.191564682542823   0.103623366050522   1.0000000
N2   N   0.807651636202258   0.333848269015082   0.111053169678746   1.0000000
N2   N   0.808513881813001   0.475975158197847   0.126800691371598   1.0000000
N2   N   0.805951153260328   0.617981664033929   0.126919264751759   1.0000000
N2   N   0.807392302220267   0.762169165527798   0.115155422502144   1.0000000


