data_1
_audit_creation_method   'vasp2cif'
_cell_length_a    17.52789999999977
_cell_length_b    17.52789999999977
_cell_length_c    15.0
_cell_angle_alpha    90.0
_cell_angle_beta    90.0
_cell_angle_gamma    119.99999999999916

_symmetry_space_group_name_H-M    'P 1'
loop_
_atom_site_label
_atom_site_type_symbol
_atom_site_fract_x
_atom_site_fract_y
_atom_site_fract_z
_atom_site_occupancy
Ga2   Ga   0.417164764861429   0.484119993451521   0.110920280298935   1.0000000
B2   B   0.908464214996512   0.954783280701056   0.110705342303478   1.0000000
B2   B   0.906938639230059   0.097093808355440   0.110810047367278   1.0000000
B2   B   0.906042676745380   0.239791079658294   0.110835458911104   1.0000000
B2   B   0.905074369872963   0.382306389128758   0.110730227073555   1.0000000
B2   B   0.904117304605099   0.524657006272077   0.110717933035418   1.0000000
B2   B   0.907188251633276   0.667635349645865   0.110806191427143   1.0000000
B2   B   0.909544444735498   0.812282574383255   0.110719788055407   1.0000000
B2   B   0.049453587517089   0.951368758363358   0.110700895909545   1.0000000
B2   B   0.048085568400431   0.093684193004548   0.110815739057883   1.0000000
B2   B   0.048329137548156   0.238015067618516   0.110791558250424   1.0000000
B2   B   0.048305546537747   0.381678006797118   0.110755119606117   1.0000000
B2   B   0.047779482930843   0.524212155782546   0.110697726613072   1.0000000
B2   B   0.049026784642477   0.666399174693632   0.110760935749393   1.0000000
B2   B   0.049645537446566   0.808845387087321   0.110722431337838   1.0000000
B2   B   0.191383918277120   0.949414477845209   0.110702921463804   1.0000000
B2   B   0.189245967837354   0.089832419136914   0.110756839510118   1.0000000
B2   B   0.187298160408496   0.231464741434237   0.110724139400797   1.0000000
B2   B   0.190685249261345   0.379813913716684   0.110643421236755   1.0000000
B2   B   0.190730335125414   0.524349910588332   0.110742091410983   1.0000000
B2   B   0.192100256754566   0.666502391440288   0.110718018338438   1.0000000
B2   B   0.192066515113431   0.808112167701271   0.110704151066369   1.0000000
B2   B   0.334765940223833   0.949888086039382   0.110755032159249   1.0000000
B2   B   0.333224130803207   0.089384517963026   0.110817377692992   1.0000000
B2   B   0.328841904160699   0.224937798808313   0.110787538866767   1.0000000
B2   B   0.324007226181356   0.358893103384346   0.110105283900243   1.0000000
B2   B   0.331767535460908   0.530954655373814   0.111151556554672   1.0000000
B2   B   0.336237896700613   0.669328768498999   0.110755486704524   1.0000000
B2   B   0.335623399069634   0.809373686745961   0.110719466894383   1.0000000
B2   B   0.478592930547839   0.951954855691068   0.110756137302409   1.0000000
B2   B   0.477521581168196   0.093390064630535   0.110806992553928   1.0000000
B2   B   0.475692447794413   0.233636935623159   0.110809959227942   1.0000000
B2   B   0.468949158186438   0.367776731733540   0.110678883841515   1.0000000
B2   B   0.483821508498459   0.667551966679645   0.110845585653138   1.0000000
B2   B   0.480084199682001   0.810090016482476   0.110750228672556   1.0000000
B2   B   0.622227461403875   0.955000083707259   0.110720554752872   1.0000000
B2   B   0.621018051706473   0.096843034963583   0.110728897482752   1.0000000
B2   B   0.619961607664995   0.239620087453575   0.110770640849255   1.0000000
B2   B   0.618256622626623   0.383834024071655   0.110773288800774   1.0000000
B2   B   0.620982243291040   0.537689029130224   0.110792768740365   1.0000000
B2   B   0.632254139353818   0.678649049141635   0.110649132427562   1.0000000
B2   B   0.624618995476394   0.814461526012877   0.110695854995388   1.0000000
B2   B   0.765753407688894   0.956071046923487   0.110700015129292   1.0000000
B2   B   0.764165964340287   0.097791513483531   0.110764351369811   1.0000000
B2   B   0.763041173991806   0.240179344096153   0.110744096979340   1.0000000
B2   B   0.761633651252444   0.382953819040047   0.110708220134792   1.0000000
B2   B   0.759830249257611   0.526188921148027   0.110748765176731   1.0000000
B2   B   0.770254964428398   0.673415308470135   0.110678802758819   1.0000000
B2   B   0.769243099151529   0.815914293186527   0.110615570646889   1.0000000
N2   N   0.955584697437799   0.906551347451727   0.110680964308199   1.0000000
N2   N   0.954366601788990   0.049124404977985   0.110778762899805   1.0000000
N2   N   0.954045504658169   0.192221600439861   0.110825747084552   1.0000000
N2   N   0.953498874886394   0.334901919127311   0.110775072240081   1.0000000
N2   N   0.952426486404529   0.477188783387146   0.110674418920231   1.0000000
N2   N   0.953829127287202   0.619454636727540   0.110771403394065   1.0000000
N2   N   0.955057606241876   0.762644477451000   0.110759772041132   1.0000000
N2   N   0.096846144450342   0.903558712720076   0.110673793074844   1.0000000
N2   N   0.095545995938372   0.045758060081443   0.110726027035560   1.0000000
N2   N   0.094408647081032   0.188447811528600   0.110813352425193   1.0000000
N2   N   0.096716637513480   0.333853333889149   0.110709787998566   1.0000000
N2   N   0.096146758406271   0.476745425672861   0.110685766617358   1.0000000
N2   N   0.096891358707430   0.618978197235019   0.110708683354765   1.0000000
N2   N   0.097104646494649   0.761159395491170   0.110716208933887   1.0000000
N2   N   0.239726765944333   0.902792657654611   0.110690868874212   1.0000000
N2   N   0.238424839487913   0.044017003395427   0.110731055755370   1.0000000
N2   N   0.235457403846681   0.184203336583753   0.110768149004988   1.0000000
N2   N   0.234611497625453   0.327203121195826   0.110426368227552   1.0000000
N2   N   0.239391702339898   0.476253791889631   0.110805126510540   1.0000000
N2   N   0.240748852573609   0.619290934730344   0.110720822263760   1.0000000
N2   N   0.240348263059742   0.761158973772678   0.110690531616971   1.0000000
N2   N   0.383320864734658   0.903796455820128   0.110728989994835   1.0000000
N2   N   0.382330660870926   0.044509056471305   0.110791356944706   1.0000000
N2   N   0.380488712048596   0.183763987664591   0.110840859366573   1.0000000
N2   N   0.375435491532250   0.318800717798620   0.110531215082276   1.0000000
N2   N   0.385953389031509   0.622552949912599   0.110852182488960   1.0000000
N2   N   0.384390474890420   0.762934002627162   0.110722915082026   1.0000000
N2   N   0.526879720937236   0.905122139319682   0.110723297477849   1.0000000
N2   N   0.525832048893443   0.047207689467769   0.110753612981188   1.0000000
N2   N   0.524636859366735   0.188923438018243   0.110791399482243   1.0000000
N2   N   0.522169074900394   0.330003066722631   0.110765879329382   1.0000000
N2   N   0.531653663132556   0.526653342297466   0.110906176101227   1.0000000
N2   N   0.539737758915905   0.626962122127643   0.110785351823893   1.0000000
N2   N   0.528929055958893   0.762905701676183   0.110754856572887   1.0000000
N2   N   0.670647982994376   0.908761623946493   0.110688702402509   1.0000000
N2   N   0.669082220341120   0.049984356249562   0.110698325503222   1.0000000
N2   N   0.667853126316150   0.192393456482036   0.110718954202389   1.0000000
N2   N   0.665974406506822   0.335813126671065   0.110730784644873   1.0000000
N2   N   0.661620211170577   0.480118405194831   0.110766157039093   1.0000000
N2   N   0.677555571458858   0.630213670413463   0.110618453741423   1.0000000
N2   N   0.675270741864299   0.771055990179518   0.110587681783408   1.0000000
N2   N   0.814457756971925   0.909636749914532   0.110649179736725   1.0000000
N2   N   0.812302483093873   0.050739878786093   0.110748135514425   1.0000000
N2   N   0.811137044570297   0.192875714753104   0.110773573562455   1.0000000
N2   N   0.809772554686478   0.335373509628048   0.110700157469975   1.0000000
N2   N   0.807910240901029   0.477988435995532   0.110694378751508   1.0000000
N2   N   0.812236754014759   0.621254932196618   0.110746509904561   1.0000000
N2   N   0.815851495039796   0.767415038082882   0.110634612948955   1.0000000


