data_1
_audit_creation_method   'vasp2cif'
_cell_length_a    14.93631414619966
_cell_length_b    14.936314146199727
_cell_length_c    13.341276283792837
_cell_angle_alpha    90.0
_cell_angle_beta    90.0
_cell_angle_gamma    119.99999999999984

_symmetry_space_group_name_H-M    'P 1'
loop_
_atom_site_label
_atom_site_type_symbol
_atom_site_fract_x
_atom_site_fract_y
_atom_site_fract_z
_atom_site_occupancy
Sb2   Sb   0.506873475987477   0.420103404660395   0.375000000000000   1.0000000
N2   N   0.111038256295999   0.055519272287046   0.125544313797652   1.0000000
N2   N   0.611177052990971   0.555701434621643   0.120320169313825   1.0000000
N2   N   0.444438542503201   0.055555528869361   0.125150862552667   1.0000000
N2   N   0.944389510230579   0.555523644360492   0.125282386068024   1.0000000
N2   N   0.777764816255708   0.055549074794547   0.125565439084751   1.0000000
N2   N   0.111075470106483   0.722204401719990   0.624227060876144   1.0000000
N2   N   0.444438542503201   0.722216346967203   0.624849137447286   1.0000000
N2   N   0.277638627032442   0.222144861659032   0.626382912104690   1.0000000
N2   N   0.777749109427687   0.722243074200130   0.625885852196702   1.0000000
N2   N   0.611104868815703   0.222180341221708   0.626057543500720   1.0000000
N2   N   0.944394959606858   0.222191131702210   0.624305545308955   1.0000000
N2   N   0.277762145126272   0.722210091364167   0.125741392366903   1.0000000
N2   N   0.111015094284907   0.222174213809136   0.125295839606707   1.0000000
N2   N   0.444430961039742   0.222218234009889   0.122955868572291   1.0000000
N2   N   0.611104868815703   0.722257860927259   0.123942456499257   1.0000000
N2   N   0.944389510230579   0.722199199203382   0.125282386068024   1.0000000
N2   N   0.777761538744327   0.222184696386971   0.125209314425739   1.0000000
N2   N   0.111072093632261   0.888875056086586   0.624258358518821   1.0000000
N2   N   0.444439589230025   0.888886461281691   0.624304683672189   1.0000000
N2   N   0.277638627032441   0.388827098706759   0.626382912104690   1.0000000
N2   N   0.611177052990971   0.388808951702546   0.629679830686110   1.0000000
N2   N   0.777761538744327   0.888910175690705   0.624790685574270   1.0000000
N2   N   0.944398323334438   0.388855802078279   0.624409883655066   1.0000000
N2   N   0.111038256295999   0.388852317342265   0.125544313797652   1.0000000
N2   N   0.277762145126314   0.888885387095556   0.125741392366903   1.0000000
N2   N   0.611109142501402   0.888901982565085   0.125402412604111   1.0000000
N2   N   0.444097205536972   0.388715269435196   0.119431925167335   1.0000000
N2   N   0.944398323334438   0.888875854589585   0.125590116344958   1.0000000
N2   N   0.777749109427687   0.388839368560914   0.124114147803359   1.0000000
N2   N   0.277752317416020   0.555532144765143   0.624915037456597   1.0000000
N2   N   0.111038256295999   0.055519272287046   0.624455686202317   1.0000000
N2   N   0.611177052990972   0.555701434621643   0.629679830686159   1.0000000
N2   N   0.444438542503201   0.055555528869361   0.624849137447286   1.0000000
N2   N   0.944389510230579   0.555523644360492   0.624717613932019   1.0000000
N2   N   0.111072093632261   0.555530370878863   0.125741641481188   1.0000000
N2   N   0.777764816255708   0.055549074794547   0.624434560915149   1.0000000
N2   N   0.277752317416020   0.055553505984251   0.125084962543374   1.0000000
N2   N   0.444430961039742   0.555546060363237   0.122955868572296   1.0000000
N2   N   0.777727706030209   0.555530519681805   0.123457444853359   1.0000000
N2   N   0.611109142501402   0.055540493269483   0.125402412604111   1.0000000
N2   N   0.444430961039742   0.555546060363237   0.627044131427675   1.0000000
N2   N   0.944394959606858   0.055537161237943   0.125694454691063   1.0000000
N2   N   0.277762145126272   0.722210091364167   0.624258607633001   1.0000000
N2   N   0.111015094284904   0.222174213809136   0.624704160393239   1.0000000
N2   N   0.444430961039742   0.222218234009882   0.627044131427673   1.0000000
N2   N   0.611104868815703   0.722257860927259   0.626057543500720   1.0000000
N2   N   0.944389510230579   0.722199199203382   0.624717613932019   1.0000000
N2   N   0.777761538744327   0.222184696386971   0.624790685574270   1.0000000
N2   N   0.111075470106475   0.722204401719990   0.125772939123865   1.0000000
N2   N   0.444438542503201   0.722216346967203   0.125150862552667   1.0000000
N2   N   0.277638627032442   0.222144861659032   0.123617087895347   1.0000000
N2   N   0.777749109427701   0.722243074200130   0.124114147803358   1.0000000
N2   N   0.611104868815703   0.222180341221708   0.123942456499259   1.0000000
N2   N   0.944394959606858   0.222191131702210   0.125694454691063   1.0000000
N2   N   0.111038256295999   0.388852317342265   0.624455686202317   1.0000000
N2   N   0.277762145126272   0.888885387095556   0.624258607633001   1.0000000
N2   N   0.611109142501402   0.888901982565085   0.624597587395871   1.0000000
N2   N   0.444097205536972   0.388715269435196   0.630568074832691   1.0000000
N2   N   0.944398323334438   0.888875854589585   0.624409883655066   1.0000000
N2   N   0.111072093632261   0.888875056086586   0.125741641481199   1.0000000
N2   N   0.777749109427687   0.388839368560914   0.625885852196669   1.0000000
N2   N   0.444439589230025   0.888886461281691   0.125695316327812   1.0000000
N2   N   0.277638627032441   0.388827098706759   0.123617087895347   1.0000000
N2   N   0.277752317416024   0.555532144765143   0.125084962543374   1.0000000
N2   N   0.611177052990972   0.388808951702546   0.120320169313824   1.0000000
N2   N   0.777761538744327   0.888910175690705   0.125209314425739   1.0000000
N2   N   0.944398323334438   0.388855802078279   0.125590116344958   1.0000000
N2   N   0.111072093632261   0.555530370878863   0.624258358518821   1.0000000
N2   N   0.277752317416024   0.055553505984248   0.624915037456597   1.0000000
N2   N   0.777727706030209   0.555530519681805   0.626542555146653   1.0000000
N2   N   0.611109142501403   0.055540493269483   0.624597587395871   1.0000000
N2   N   0.944394959606858   0.055537161237943   0.624305545308955   1.0000000
N2   N   0.059314469828752   0.113210904874297   0.375000000000000   1.0000000
N2   N   0.555942903169585   0.625182291192660   0.375000000000000   1.0000000
N2   N   0.387508199144113   0.103457326907640   0.375000000000000   1.0000000
N2   N   0.885688410251712   0.609510871792530   0.375000000000000   1.0000000
N2   N   0.724894193807729   0.111115473539454   0.375000000000000   1.0000000
N2   N   0.055504901135318   0.777750005062166   0.875000000000000   1.0000000
N2   N   0.388818980598378   0.777751210019530   0.875000000000000   1.0000000
N2   N   0.222157910364606   0.277745621849032   0.875000000000000   1.0000000
N2   N   0.722158633314125   0.777743440966131   0.875000000000000   1.0000000
N2   N   0.555479310494050   0.277728329986300   0.875000000000000   1.0000000
N2   N   0.888830098090751   0.277753336790168   0.875000000000000   1.0000000
N2   N   0.220137475687519   0.776735404510482   0.375000000000000   1.0000000
N2   N   0.059314469828751   0.279436898287773   0.375000000000000   1.0000000
N2   N   0.390573763709509   0.268178513564769   0.375000000000000   1.0000000
N2   N   0.556137104770258   0.784157629743370   0.375000000000000   1.0000000
N2   N   0.889425271766150   0.779059818750942   0.375000000000000   1.0000000
N2   N   0.724619275098062   0.275469996009739   0.375000000000000   1.0000000
N2   N   0.055494285473982   0.944405809602755   0.875000000000000   1.0000000
N2   N   0.388818980598377   0.944401103912230   0.875000000000000   1.0000000
N2   N   0.222152463248107   0.444424626905558   0.875000000000000   1.0000000
N2   N   0.555491953982304   0.444412643657816   0.875000000000000   1.0000000
N2   N   0.722153879295310   0.944409508522754   0.875000000000000   1.0000000
N2   N   0.888840492494133   0.444424316810797   0.875000000000000   1.0000000
N2   N   0.056373799631262   0.445057704543110   0.375000000000000   1.0000000
N2   N   0.220570512455126   0.941793991660934   0.375000000000000   1.0000000
N2   N   0.556210480912192   0.944771907122745   0.375000000000000   1.0000000
N2   N   0.390573763709500   0.455728583478052   0.375000000000000   1.0000000
N2   N   0.891890776312892   0.947034137095428   0.375000000000000   1.0000000
N2   N   0.721861211612843   0.440980139985826   0.375000000000000   1.0000000
N2   N   0.222154586760282   0.611089944791128   0.875000000000000   1.0000000
N2   N   0.055494592592915   0.111075483536252   0.875000000000000   1.0000000
N2   N   0.555479310494050   0.611084313840997   0.875000000000000   1.0000000
N2   N   0.388812505172418   0.111052582201087   0.875000000000000   1.0000000
N2   N   0.888854672598288   0.611094002965671   0.875000000000000   1.0000000
N2   N   0.053509115478882   0.610480199897302   0.375000000000000   1.0000000
N2   N   0.722153879295310   0.111077704105909   0.875000000000000   1.0000000
N2   N   0.223444845280776   0.109881680987704   0.375000000000000   1.0000000
N2   N   0.387508199144113   0.617384205569746   0.375000000000000   1.0000000
N2   N   0.721861211612862   0.614214404960259   0.375000000000000   1.0000000
N2   N   0.556137104770258   0.105312808360212   0.375000000000000   1.0000000
N2   N   0.388812505172418   0.611093256304699   0.875000000000000   1.0000000
N2   N   0.892484318466741   0.112908825900074   0.375000000000000   1.0000000
N2   N   0.222159745656399   0.777746539494887   0.875000000000000   1.0000000
N2   N   0.055494592592914   0.277752442390025   0.875000000000000   1.0000000
N2   N   0.388814478955755   0.277719123802325   0.875000000000000   1.0000000
N2   N   0.555480921285124   0.777747776608482   0.875000000000000   1.0000000
N2   N   0.888840492494133   0.777749509016557   0.875000000000000   1.0000000
N2   N   0.722158633314125   0.277748525681382   0.875000000000000   1.0000000
N2   N   0.053509115478879   0.776362248914952   0.375000000000000   1.0000000
N2   N   0.387634238933193   0.779392409855153   0.375000000000000   1.0000000
N2   N   0.227667957722917   0.280500645528109   0.375000000000000   1.0000000
N2   N   0.724619275098062   0.782482612421721   0.375000000000000   1.0000000
N2   N   0.555942903169585   0.264093945310293   0.375000000000000   1.0000000
N2   N   0.891890776312892   0.278189972550694   0.375000000000000   1.0000000
N2   N   0.055494285473982   0.444421809204461   0.875000000000000   1.0000000
N2   N   0.222154586760282   0.944397975302609   0.875000000000000   1.0000000
N2   N   0.555482648667512   0.944407991000403   0.875000000000000   1.0000000
N2   N   0.388814478955755   0.444428688486707   0.875000000000000   1.0000000
N2   N   0.888830098090751   0.944410094633837   0.875000000000000   1.0000000
N2   N   0.056373799631262   0.944649428421496   0.375000000000000   1.0000000
N2   N   0.722181711897541   0.444428194454232   0.875000000000000   1.0000000
N2   N   0.387634238933193   0.941575162411459   0.375000000000000   1.0000000
N2   N   0.223444845280779   0.446896497626383   0.375000000000000   1.0000000
N2   N   0.220570512455136   0.612109854127527   0.375000000000000   1.0000000
N2   N   0.724894193807729   0.947112053601515   0.375000000000000   1.0000000
N2   N   0.889425271766151   0.443698786348390   0.375000000000000   1.0000000
N2   N   0.055504901135318   0.611088229406464   0.875000000000000   1.0000000
N2   N   0.222152463248107   0.111061169675896   0.875000000000000   1.0000000
N2   N   0.722181711897541   0.611086850776585   0.875000000000000   1.0000000
N2   N   0.555480921285124   0.111066478009880   0.875000000000000   1.0000000
N2   N   0.888828555666057   0.111080944499745   0.875000000000000   1.0000000
B2   B   0.113279088557021   0.056047372614472   0.375000000000000   1.0000000
B2   B   0.611501688771446   0.572271726305143   0.375000000000000   1.0000000
B2   B   0.444643298954403   0.051212276250873   0.375000000000000   1.0000000
B2   B   0.942309579285106   0.554699551134869   0.375000000000000   1.0000000
B2   B   0.781391338366203   0.057362335849748   0.375000000000000   1.0000000
B2   B   0.111046779349728   0.722190056341470   0.875000000000000   1.0000000
B2   B   0.444371684944167   0.722153689187648   0.875000000000000   1.0000000
B2   B   0.277782651952379   0.222234101766291   0.875000000000000   1.0000000
B2   B   0.777671302821445   0.722119213033964   0.875000000000000   1.0000000
B2   B   0.611007925730776   0.222232726556918   0.875000000000000   1.0000000
B2   B   0.944401963420461   0.222209550743068   0.875000000000000   1.0000000
B2   B   0.276506483081691   0.722645895982963   0.375000000000000   1.0000000
B2   B   0.116716833994725   0.225025083664036   0.375000000000000   1.0000000
B2   B   0.443808498324177   0.213001155051811   0.375000000000000   1.0000000
B2   B   0.613336476315901   0.732134475903738   0.375000000000000   1.0000000
B2   B   0.942309579285105   0.720943361483611   0.375000000000000   1.0000000
B2   B   0.780974087782640   0.221903759062736   0.375000000000000   1.0000000
B2   B   0.111057794185986   0.888861997075552   0.875000000000000   1.0000000
B2   B   0.444371219462406   0.888852276397912   0.875000000000000   1.0000000
B2   B   0.277782651952379   0.388881883519415   0.875000000000000   1.0000000
B2   B   0.610997651997060   0.388889191344359   0.875000000000000   1.0000000
B2   B   0.777692332836860   0.888809489971389   0.875000000000000   1.0000000
B2   B   0.944378363354193   0.388876718678876   0.875000000000000   1.0000000
B2   B   0.113279088557013   0.390565049275852   0.375000000000000   1.0000000
B2   B   0.276506483081691   0.887193920431987   0.375000000000000   1.0000000
B2   B   0.613454958942735   0.892778067055086   0.375000000000000   1.0000000
B2   B   0.945778568472790   0.890041938013409   0.375000000000000   1.0000000
B2   B   0.778624771115435   0.387084207555412   0.375000000000000   1.0000000
B2   B   0.277739937508850   0.555519270760940   0.875000000000000   1.0000000
B2   B   0.111087760699840   0.055543874392040   0.875000000000000   1.0000000
B2   B   0.610997651997060   0.555441793985836   0.875000000000000   1.0000000
B2   B   0.444371684944167   0.055551329089832   0.875000000000000   1.0000000
B2   B   0.944364711174140   0.555528183664724   0.875000000000000   1.0000000
B2   B   0.109944953548550   0.555856612720157   0.375000000000000   1.0000000
B2   B   0.777705939711802   0.055519636522548   0.875000000000000   1.0000000
B2   B   0.277143641174433   0.052563796277430   0.375000000000000   1.0000000
B2   B   0.443808498324177   0.564140676605672   0.375000000000000   1.0000000
B2   B   0.773180369763788   0.553256851548605   0.375000000000000   1.0000000
B2   B   0.613454958942698   0.054010225221094   0.375000000000000   1.0000000
B2   B   0.444389989950200   0.555485152081451   0.875000000000000   1.0000000
B2   B   0.948449967886309   0.058012442765160   0.375000000000000   1.0000000
B2   B   0.277718309760183   0.722184639537077   0.875000000000000   1.0000000
B2   B   0.111109322457564   0.222221327895432   0.875000000000000   1.0000000
B2   B   0.444389989950152   0.222238171202019   0.875000000000000   1.0000000
B2   B   0.611007925730776   0.722108532507283   0.875000000000000   1.0000000
B2   B   0.944364711174140   0.722169860842655   0.875000000000000   1.0000000
B2   B   0.777692332836860   0.222216176198847   0.875000000000000   1.0000000
B2   B   0.109141000443100   0.721237166888208   0.375000000000000   1.0000000
B2   B   0.444643298954411   0.726764356036791   0.375000000000000   1.0000000
B2   B   0.282501131289586   0.222417202441016   0.375000000000000   1.0000000
B2   B   0.778624771115435   0.724873896893330   0.375000000000000   1.0000000
B2   B   0.613336476315883   0.214535333745490   0.375000000000000   1.0000000
B2   B   0.948449967886309   0.223770858454447   0.375000000000000   1.0000000
B2   B   0.111087760699840   0.388877219641162   0.875000000000000   1.0000000
B2   B   0.277718309760183   0.888867003556438   0.875000000000000   1.0000000
B2   B   0.611024324759993   0.888822554059977   0.875000000000000   1.0000000
B2   B   0.444432052507499   0.388882692920445   0.875000000000000   1.0000000
B2   B   0.944378363354193   0.888834978008477   0.875000000000000   1.0000000
B2   B   0.109944953548549   0.887421674161811   0.375000000000000   1.0000000
B2   B   0.777671302821445   0.388885423121003   0.875000000000000   1.0000000
B2   B   0.444681883452204   0.889007608392857   0.375000000000000   1.0000000
B2   B   0.282501131289586   0.393417262181854   0.375000000000000   1.0000000
B2   B   0.277143641174432   0.557913178230351   0.375000000000000   1.0000000
B2   B   0.611501688771409   0.372563295799503   0.375000000000000   1.0000000
B2   B   0.780974087782640   0.892403662053198   0.375000000000000   1.0000000
B2   B   0.945778568472790   0.389069963792727   0.375000000000000   1.0000000
B2   B   0.111057794185986   0.555529130443737   0.875000000000000   1.0000000
B2   B   0.277739937508850   0.055554000081271   0.875000000000000   1.0000000
B2   B   0.777667170174691   0.555500251754076   0.875000000000000   1.0000000
B2   B   0.611024324759993   0.055535104033297   0.875000000000000   1.0000000
B2   B   0.944401963420461   0.055525746010696   0.875000000000000   1.0000000
B2   B   0.055557258346546   0.111139011023054   0.125764378059260   1.0000000
B2   B   0.555567853463914   0.610927640548312   0.122829861628030   1.0000000
B2   B   0.388964006270041   0.111332537816676   0.124831224696385   1.0000000
B2   B   0.888641905380391   0.610987619356879   0.124981576624704   1.0000000
B2   B   0.722200963984424   0.111114425292575   0.125569472319310   1.0000000
B2   B   0.055464002481949   0.777753036032175   0.624186586913952   1.0000000
B2   B   0.388922255959752   0.777732218582993   0.624235375676843   1.0000000
B2   B   0.222269183401427   0.277801258367374   0.625417936756400   1.0000000
B2   B   0.722127525979943   0.777688957975547   0.625365511571900   1.0000000
B2   B   0.555567853463914   0.277973546248864   0.627170138372020   1.0000000
B2   B   0.888833737982939   0.277742411331775   0.624316308194428   1.0000000
B2   B   0.222213999491692   0.777773666412544   0.125950611244299   1.0000000
B2   B   0.055557258346548   0.277751580656835   0.125764378059260   1.0000000
B2   B   0.388888948300909   0.277915373608179   0.122571046161352   1.0000000
B2   B   0.555562834374093   0.777692145225897   0.125109796370973   1.0000000
B2   B   0.888736342309323   0.777702447059887   0.125243370184943   1.0000000
B2   B   0.722127525979943   0.277771901337779   0.124634488428070   1.0000000
B2   B   0.055517422724344   0.944469708219767   0.624126711505340   1.0000000
B2   B   0.388922255959752   0.944523370710099   0.624235375676843   1.0000000
B2   B   0.222259433286271   0.444360346030582   0.624840808696521   1.0000000
B2   B   0.555402898344104   0.444368115838716   0.627020737798701   1.0000000
B2   B   0.722200963984424   0.944419872025210   0.624430527680597   1.0000000
B2   B   0.888736342309323   0.444367228582642   0.624756629815041   1.0000000
B2   B   0.055517422724344   0.444381047837779   0.125873288494629   1.0000000
B2   B   0.222244065067751   0.944543200529576   0.125774581631172   1.0000000
B2   B   0.555568907582592   0.944451120457926   0.125717137549522   1.0000000
B2   B   0.388888948300909   0.444306908026086   0.122571046161346   1.0000000
B2   B   0.888833737982939   0.944424659984494   0.125683691805567   1.0000000
B2   B   0.721905095972012   0.444305704796672   0.122936351880208   1.0000000
B2   B   0.222244065067751   0.611034197871491   0.624225418368874   1.0000000
B2   B   0.055557258346542   0.111139011023055   0.624235621940747   1.0000000
B2   B   0.555567853463914   0.610927640548312   0.627170138372020   1.0000000
B2   B   0.388964006270041   0.111332537816676   0.625168775303724   1.0000000
B2   B   0.888641905380391   0.610987619356879   0.625018423375373   1.0000000
B2   B   0.055464002481947   0.611044299783127   0.125813413086093   1.0000000
B2   B   0.722200963984424   0.111114425292575   0.624430527680597   1.0000000
B2   B   0.222259433286276   0.111232420589054   0.125159191303545   1.0000000
B2   B   0.388964006270042   0.610964801786659   0.124831224696385   1.0000000
B2   B   0.721905095972013   0.610932724508640   0.122936351880208   1.0000000
B2   B   0.555562834374093   0.111204022481505   0.125109796370973   1.0000000
B2   B   0.388964006270042   0.610964801786659   0.625168775303724   1.0000000
B2   B   0.888866433500382   0.111099883416865   0.125829511025497   1.0000000
B2   B   0.222213999491692   0.777773666412571   0.624049388755652   1.0000000
B2   B   0.055557258346546   0.277751580656835   0.624235621940747   1.0000000
B2   B   0.388888948300909   0.277915373608179   0.627428953838669   1.0000000
B2   B   0.555562834374093   0.777692145225897   0.624890203629055   1.0000000
B2   B   0.888736342309323   0.777702447059887   0.624756629815041   1.0000000
B2   B   0.722127525979943   0.277771901337779   0.625365511571900   1.0000000
B2   B   0.055464002481947   0.777753036032175   0.125813413086093   1.0000000
B2   B   0.388922255959752   0.777732218582993   0.125764624323216   1.0000000
B2   B   0.222269183401427   0.277801258367374   0.124582063243512   1.0000000
B2   B   0.722127525979943   0.777688957975547   0.124634488428070   1.0000000
B2   B   0.555567853463914   0.277973546248833   0.122829861628030   1.0000000
B2   B   0.888833737982939   0.277742411331775   0.125683691805567   1.0000000
B2   B   0.055517422724341   0.444381047837779   0.624126711505340   1.0000000
B2   B   0.222244065067751   0.944543200529576   0.624225418368874   1.0000000
B2   B   0.555568907582592   0.944451120457926   0.624282862450505   1.0000000
B2   B   0.388888948300909   0.444306908026086   0.627428953838669   1.0000000
B2   B   0.888833737982939   0.944424659984494   0.624316308194428   1.0000000
B2   B   0.055517422724342   0.944469708219767   0.125873288494629   1.0000000
B2   B   0.721905095972012   0.444305704796664   0.627063648119790   1.0000000
B2   B   0.388922255959752   0.944523370710099   0.125764624323216   1.0000000
B2   B   0.222259433286276   0.444360346030582   0.125159191303545   1.0000000
B2   B   0.222244065067751   0.611034197871491   0.125774581631172   1.0000000
B2   B   0.555402898344077   0.444368115838688   0.122979262201284   1.0000000
B2   B   0.722200963984424   0.944419872025210   0.125569472319310   1.0000000
B2   B   0.888736342309323   0.444367228582642   0.125243370184943   1.0000000
B2   B   0.055464002481949   0.611044299783127   0.624186586913952   1.0000000
B2   B   0.222259433286272   0.111232420589054   0.624840808696521   1.0000000
B2   B   0.721905095972013   0.610932724508563   0.627063648119790   1.0000000
B2   B   0.555562834374093   0.111204022481490   0.624890203629055   1.0000000
B2   B   0.888866433500382   0.111099883416865   0.624170488974469   1.0000000


