data_1
_audit_creation_method   'vasp2cif'
_cell_length_a    14.93631414619966
_cell_length_b    14.936314146199727
_cell_length_c    13.341276283792837
_cell_angle_alpha    90.0
_cell_angle_beta    90.0
_cell_angle_gamma    119.99999999999984

_symmetry_space_group_name_H-M    'P 1'
loop_
_atom_site_label
_atom_site_type_symbol
_atom_site_fract_x
_atom_site_fract_y
_atom_site_fract_z
_atom_site_occupancy
Ga2   Ga   0.444444444444443   0.388888888888886   0.375000000000000   1.0000000
N2   N   0.111085203069237   0.055533479881242   0.125030985882543   1.0000000
N2   N   0.611137972590529   0.555585299972360   0.124970851297037   1.0000000
N2   N   0.444448276812003   0.055533479881242   0.125030985882543   1.0000000
N2   N   0.944455491352010   0.555556514489190   0.125111915269877   1.0000000
N2   N   0.777777777777779   0.055555555555557   0.125091124210998   1.0000000
N2   N   0.111111111111114   0.722222222222221   0.624903583829942   1.0000000
N2   N   0.444448276812003   0.722248130264100   0.624969014117457   1.0000000
N2   N   0.277748033360974   0.222195360742807   0.625029148702969   1.0000000
N2   N   0.777799853452093   0.722248130264100   0.624969014117457   1.0000000
N2   N   0.611123955051382   0.222209378281951   0.624999232885597   1.0000000
N2   N   0.944432253428202   0.222214255327439   0.624921057444721   1.0000000
N2   N   0.277776818844144   0.722232310196153   0.125111915269878   1.0000000
N2   N   0.111085423230573   0.222209378281951   0.125000767114404   1.0000000
N2   N   0.444447327381833   0.222195360742807   0.124970851297037   1.0000000
N2   N   0.611123955051382   0.722247910102761   0.125000767114404   1.0000000
N2   N   0.944455491352010   0.722232310196153   0.125111915269877   1.0000000
N2   N   0.777782001899235   0.222214255327439   0.125078942555281   1.0000000
N2   N   0.111101023137184   0.888877841981318   0.624888084730120   1.0000000
N2   N   0.444454139429309   0.888893736381321   0.624943438729187   1.0000000
N2   N   0.277748033360974   0.388886005951496   0.625029148702969   1.0000000
N2   N   0.611137972590529   0.388886005951496   0.625029148702969   1.0000000
N2   N   0.777782001899235   0.888901079905126   0.624921057444721   1.0000000
N2   N   0.944439596952008   0.388879193904020   0.624943438729187   1.0000000
N2   N   0.111085203069237   0.388885056521326   0.125030985882543   1.0000000
N2   N   0.277776818844144   0.888877841981318   0.125111915269877   1.0000000
N2   N   0.611119078005897   0.888901079905126   0.125078942555281   1.0000000
N2   N   0.444444444444443   0.388888888888886   0.127612502233384   1.0000000
N2   N   0.944439596952008   0.888893736381321   0.125056561270810   1.0000000
N2   N   0.777799853452093   0.388885056521326   0.125030985882543   1.0000000
N2   N   0.277765383302041   0.555567950031300   0.624952907713684   1.0000000
N2   N   0.111085203069237   0.055533479881242   0.624969014117457   1.0000000
N2   N   0.611137972590529   0.555585299972360   0.625029148702969   1.0000000
N2   N   0.444448276812003   0.055533479881242   0.624969014117457   1.0000000
N2   N   0.944455491352010   0.555556514489190   0.624888084730120   1.0000000
N2   N   0.111101023137184   0.555556514489190   0.125111915269877   1.0000000
N2   N   0.777777777777779   0.055555555555557   0.624908875789003   1.0000000
N2   N   0.277765383302041   0.055530766604081   0.125047092286314   1.0000000
N2   N   0.444447327381833   0.555585299972360   0.124970851297037   1.0000000
N2   N   0.777802566729255   0.555567950031300   0.125047092286314   1.0000000
N2   N   0.611119078005897   0.055551331434100   0.125078942555281   1.0000000
N2   N   0.444447327381833   0.555585299972360   0.625029148702969   1.0000000
N2   N   0.944432253428202   0.055551331434100   0.125078942555281   1.0000000
N2   N   0.277776818844144   0.722232310196153   0.624888084730120   1.0000000
N2   N   0.111085423230573   0.222209378281951   0.624999232885597   1.0000000
N2   N   0.444447327381833   0.222195360742807   0.625029148702969   1.0000000
N2   N   0.611123955051382   0.722247910102761   0.624999232885597   1.0000000
N2   N   0.944455491352010   0.722232310196153   0.624888084730120   1.0000000
N2   N   0.777782001899235   0.222214255327439   0.624921057444721   1.0000000
N2   N   0.111111111111114   0.722222222222221   0.125096416170058   1.0000000
N2   N   0.444448276812003   0.722248130264100   0.125030985882543   1.0000000
N2   N   0.277748033360974   0.222195360742807   0.124970851297037   1.0000000
N2   N   0.777799853452093   0.722248130264100   0.125030985882543   1.0000000
N2   N   0.611123955051382   0.222209378281951   0.125000767114404   1.0000000
N2   N   0.944432253428202   0.222214255327439   0.125078942555281   1.0000000
N2   N   0.111085203069237   0.388885056521326   0.624969014117457   1.0000000
N2   N   0.277776818844144   0.888877841981318   0.624888084730120   1.0000000
N2   N   0.611119078005897   0.888901079905126   0.624921057444721   1.0000000
N2   N   0.444444444444443   0.388888888888886   0.622387497766616   1.0000000
N2   N   0.944439596952008   0.888893736381321   0.624943438729187   1.0000000
N2   N   0.111101023137184   0.888877841981318   0.125111915269878   1.0000000
N2   N   0.777799853452093   0.388885056521326   0.624969014117457   1.0000000
N2   N   0.444454139429309   0.888893736381321   0.125056561270810   1.0000000
N2   N   0.277748033360974   0.388886005951496   0.124970851297037   1.0000000
N2   N   0.277765383302041   0.555567950031300   0.125047092286314   1.0000000
N2   N   0.611137972590529   0.388886005951496   0.124970851297037   1.0000000
N2   N   0.777782001899235   0.888901079905126   0.125078942555281   1.0000000
N2   N   0.944439596952008   0.388879193904020   0.125056561270810   1.0000000
N2   N   0.111101023137184   0.555556514489190   0.624888084730120   1.0000000
N2   N   0.277765383302041   0.055530766604081   0.624952907713684   1.0000000
N2   N   0.777802566729255   0.555567950031300   0.624952907713684   1.0000000
N2   N   0.611119078005897   0.055551331434100   0.624921057444721   1.0000000
N2   N   0.944432253428202   0.055551331434100   0.624921057444721   1.0000000
N2   N   0.054459739396179   0.110371923608700   0.375000000000000   1.0000000
N2   N   0.556111703923902   0.612223407847801   0.375000000000000   1.0000000
N2   N   0.387735600622738   0.104624404464774   0.375000000000000   1.0000000
N2   N   0.891108534524267   0.612220933928803   0.375000000000000   1.0000000
N2   N   0.722419531244047   0.110913802089286   0.375000000000000   1.0000000
N2   N   0.055555832090116   0.777777501243221   0.875000000000000   1.0000000
N2   N   0.388887812112373   0.777779529397443   0.875000000000000   1.0000000
N2   N   0.222224284498945   0.277778808916140   0.875000000000000   1.0000000
N2   N   0.722224361820933   0.777772075164773   0.875000000000000   1.0000000
N2   N   0.555554524417196   0.277778808916140   0.875000000000000   1.0000000
N2   N   0.888895196152874   0.277790392305755   0.875000000000000   1.0000000
N2   N   0.221802333451244   0.777567833392289   0.375000000000000   1.0000000
N2   N   0.054459739396179   0.277421149120815   0.375000000000000   1.0000000
N2   N   0.377829514542616   0.255659029085237   0.375000000000000   1.0000000
N2   N   0.555912184212520   0.778873593937153   0.375000000000000   1.0000000
N2   N   0.890713788442924   0.779253402486675   0.375000000000000   1.0000000
N2   N   0.722961409724633   0.277421149120815   0.375000000000000   1.0000000
N2   N   0.055553803935893   0.944441616048263   0.875000000000000   1.0000000
N2   N   0.388887812112373   0.944441616048263   0.875000000000000   1.0000000
N2   N   0.222223214713065   0.444450141880533   0.875000000000000   1.0000000
N2   N   0.555552583303838   0.444442958318583   0.875000000000000   1.0000000
N2   N   0.722219410899799   0.944438821799592   0.875000000000000   1.0000000
N2   N   0.888891717285065   0.444445521220955   0.875000000000000   1.0000000
N2   N   0.054079930846661   0.444793719289587   0.375000000000000   1.0000000
N2   N   0.221112399404532   0.942224798809061   0.375000000000000   1.0000000
N2   N   0.555843728750680   0.944588531042005   0.375000000000000   1.0000000
N2   N   0.377829514542614   0.455503818790713   0.375000000000000   1.0000000
N2   N   0.888744802291324   0.944588531042005   0.375000000000000   1.0000000
N2   N   0.728708928868561   0.445597732710590   0.375000000000000   1.0000000
N2   N   0.222215601790315   0.611117731543021   0.875000000000000   1.0000000
N2   N   0.055561258168559   0.111108971512402   0.875000000000000   1.0000000
N2   N   0.555554524417196   0.611109048834391   0.875000000000000   1.0000000
N2   N   0.388883191452795   0.111106406165868   0.875000000000000   1.0000000
N2   N   0.888902129752696   0.611117731543021   0.875000000000000   1.0000000
N2   N   0.055765499941046   0.611530999882091   0.375000000000000   1.0000000
N2   N   0.722219410899799   0.111113922433538   0.875000000000000   1.0000000
N2   N   0.216888803842028   0.104624404464774   0.375000000000000   1.0000000
N2   N   0.387735600622738   0.616444529491306   0.375000000000000   1.0000000
N2   N   0.728708928868561   0.616444529491306   0.375000000000000   1.0000000
N2   N   0.555912184212520   0.110371923608700   0.375000000000000   1.0000000
N2   N   0.388883191452795   0.611110118620272   0.875000000000000   1.0000000
N2   N   0.888494270845228   0.110913802089286   0.375000000000000   1.0000000
N2   N   0.222221669153105   0.777777501243221   0.875000000000000   1.0000000
N2   N   0.055561258168559   0.277785619989492   0.875000000000000   1.0000000
N2   N   0.388890375014745   0.277780750029501   0.875000000000000   1.0000000
N2   N   0.555547713343845   0.777772075164773   0.875000000000000   1.0000000
N2   N   0.888891717285065   0.777779529397443   0.875000000000000   1.0000000
N2   N   0.722224361820933   0.277785619989492   0.875000000000000   1.0000000
N2   N   0.055765499941046   0.777567833392289   0.375000000000000   1.0000000
N2   N   0.388539614043742   0.779253402486675   0.375000000000000   1.0000000
N2   N   0.221109925485535   0.277221629409435   0.375000000000000   1.0000000
N2   N   0.722961409724633   0.778873593937153   0.375000000000000   1.0000000
N2   N   0.556111703923902   0.277221629409435   0.375000000000000   1.0000000
N2   N   0.888744802291324   0.277489604582655   0.375000000000000   1.0000000
N2   N   0.055553803935893   0.444445521220955   0.875000000000000   1.0000000
N2   N   0.222215601790315   0.944431203580632   0.875000000000000   1.0000000
N2   N   0.555542941027585   0.944438137180455   0.875000000000000   1.0000000
N2   N   0.388890375014745   0.444442958318583   0.875000000000000   1.0000000
N2   N   0.888895196152874   0.944438137180455   0.875000000000000   1.0000000
N2   N   0.054079930846661   0.942619544890405   0.375000000000000   1.0000000
N2   N   0.722226927167466   0.444450141880533   0.875000000000000   1.0000000
N2   N   0.388539614043742   0.942619544890405   0.375000000000000   1.0000000
N2   N   0.216888803842028   0.445597732710590   0.375000000000000   1.0000000
N2   N   0.221112399404532   0.612220933928803   0.375000000000000   1.0000000
N2   N   0.577674304248098   0.455503818790713   0.375000000000000   1.0000000
N2   N   0.722419531244047   0.944839062488101   0.375000000000000   1.0000000
N2   N   0.890713788442924   0.444793719289587   0.375000000000000   1.0000000
N2   N   0.055555832090116   0.611111664180229   0.875000000000000   1.0000000
N2   N   0.222223214713065   0.111106406165868   0.875000000000000   1.0000000
N2   N   0.722226927167466   0.611110118620272   0.875000000000000   1.0000000
N2   N   0.555547713343846   0.111108971512402   0.875000000000000   1.0000000
N2   N   0.888894511533736   0.111113922433538   0.875000000000000   1.0000000
B2   B   0.107638032478210   0.052333879547215   0.375000000000000   1.0000000
B2   B   0.619261748363288   0.562456447332045   0.375000000000000   1.0000000
B2   B   0.444695847069005   0.052333879547215   0.375000000000000   1.0000000
B2   B   0.945414267062089   0.555811240786284   0.375000000000000   1.0000000
B2   B   0.777777777777779   0.055555555555557   0.375000000000000   1.0000000
B2   B   0.111111111111114   0.722222222222221   0.875000000000000   1.0000000
B2   B   0.444442488410654   0.722232189259643   0.875000000000000   1.0000000
B2   B   0.277760149741400   0.222205764945138   0.875000000000000   1.0000000
B2   B   0.777789700848985   0.722232189259643   0.875000000000000   1.0000000
B2   B   0.611116964863244   0.222216368470092   0.875000000000000   1.0000000
B2   B   0.944443356825503   0.222224564156789   0.875000000000000   1.0000000
B2   B   0.277522092547051   0.722936359609142   0.375000000000000   1.0000000
B2   B   0.110082108923575   0.221707721128451   0.375000000000000   1.0000000
B2   B   0.443194698968756   0.214071584970048   0.375000000000000   1.0000000
B2   B   0.611625612204884   0.723251224409762   0.375000000000000   1.0000000
B2   B   0.945414267062089   0.722936359609142   0.375000000000000   1.0000000
B2   B   0.777921526057621   0.221755566021801   0.375000000000000   1.0000000
B2   B   0.111106142227096   0.888883964898582   0.875000000000000   1.0000000
B2   B   0.444439457099332   0.888886395216332   0.875000000000000   1.0000000
B2   B   0.277760149741400   0.388887718129591   0.875000000000000   1.0000000
B2   B   0.611127568388197   0.388887718129591   0.875000000000000   1.0000000
B2   B   0.777781207331287   0.888889976507826   0.875000000000000   1.0000000
B2   B   0.944446938116997   0.388893876233997   0.875000000000000   1.0000000
B2   B   0.107638032478210   0.388637486264324   0.375000000000000   1.0000000
B2   B   0.277522092547052   0.887919066271239   0.375000000000000   1.0000000
B2   B   0.611577767311534   0.889499293369152   0.375000000000000   1.0000000
B2   B   0.944270979378904   0.889062353954424   0.375000000000000   1.0000000
B2   B   0.780999453786124   0.388637486264324   0.375000000000000   1.0000000
B2   B   0.277771866626571   0.555561466706764   0.875000000000000   1.0000000
B2   B   0.111101144073695   0.055543632484349   0.875000000000000   1.0000000
B2   B   0.611127568388197   0.555573183591934   0.875000000000000   1.0000000
B2   B   0.444442488410654   0.055543632484349   0.875000000000000   1.0000000
B2   B   0.944449368434746   0.555555510661848   0.875000000000000   1.0000000
B2   B   0.110396973724194   0.555811240786284   0.375000000000000   1.0000000
B2   B   0.777777777777779   0.055555555555557   0.875000000000000   1.0000000
B2   B   0.276121506536366   0.052243013072731   0.375000000000000   1.0000000
B2   B   0.443194698968756   0.562456447332045   0.375000000000000   1.0000000
B2   B   0.781090320260603   0.557211826796968   0.375000000000000   1.0000000
B2   B   0.611577767311534   0.055411807275714   0.375000000000000   1.0000000
B2   B   0.444445615203738   0.555573183591934   0.875000000000000   1.0000000
B2   B   0.943834039964176   0.055411807275714   0.375000000000000   1.0000000
B2   B   0.277777822671489   0.722227191106240   0.875000000000000   1.0000000
B2   B   0.111099403606855   0.222216368470092   0.875000000000000   1.0000000
B2   B   0.444445615203738   0.222205764945138   0.875000000000000   1.0000000
B2   B   0.611116964863244   0.722233929726478   0.875000000000000   1.0000000
B2   B   0.944449368434746   0.722227191106240   0.875000000000000   1.0000000
B2   B   0.777781207331287   0.222224564156789   0.875000000000000   1.0000000
B2   B   0.111111111111114   0.722222222222221   0.375000000000000   1.0000000
B2   B   0.444695847069005   0.725695300855123   0.375000000000000   1.0000000
B2   B   0.270876886001292   0.214071584970048   0.375000000000000   1.0000000
B2   B   0.780999453786124   0.725695300855122   0.375000000000000   1.0000000
B2   B   0.611625612204884   0.221707721128451   0.375000000000000   1.0000000
B2   B   0.943834039964176   0.221755566021801   0.375000000000000   1.0000000
B2   B   0.111101144073695   0.388890844922675   0.875000000000000   1.0000000
B2   B   0.277777822671489   0.888883964898582   0.875000000000000   1.0000000
B2   B   0.611108769176548   0.888889976507826   0.875000000000000   1.0000000
B2   B   0.444444444444443   0.388888888888886   0.875000000000000   1.0000000
B2   B   0.944446938116997   0.888886395216332   0.875000000000000   1.0000000
B2   B   0.110396973724193   0.887919066271239   0.375000000000000   1.0000000
B2   B   0.777789700848985   0.388890844922675   0.875000000000000   1.0000000
B2   B   0.444791374575518   0.889062353954424   0.375000000000000   1.0000000
B2   B   0.270876886001292   0.390138634364573   0.375000000000000   1.0000000
B2   B   0.276121506536366   0.557211826796968   0.375000000000000   1.0000000
B2   B   0.619261748363288   0.390138634364574   0.375000000000000   1.0000000
B2   B   0.777921526057621   0.889499293369152   0.375000000000000   1.0000000
B2   B   0.944270979378904   0.388541958757810   0.375000000000000   1.0000000
B2   B   0.111106142227096   0.555555510661848   0.875000000000000   1.0000000
B2   B   0.277771866626571   0.055543733253143   0.875000000000000   1.0000000
B2   B   0.777789600080194   0.555561466706764   0.875000000000000   1.0000000
B2   B   0.611108769176548   0.055552126002049   0.875000000000000   1.0000000
B2   B   0.944443356825503   0.055552126002049   0.875000000000000   1.0000000
B2   B   0.055571080725551   0.111186121764220   0.125071360599911   1.0000000
B2   B   0.555646049458010   0.611292098916019   0.125011464382713   1.0000000
B2   B   0.388758445545784   0.110972892273488   0.125024869675872   1.0000000
B2   B   0.888825293579582   0.611079313456464   0.125112438376550   1.0000000
B2   B   0.722278333808317   0.111054999525018   0.125106587597723   1.0000000
B2   B   0.055609509776219   0.777723823557116   0.624887317226012   1.0000000
B2   B   0.388940769990026   0.777900969265490   0.624907724232489   1.0000000
B2   B   0.222041234417317   0.277687283875326   0.624988535617287   1.0000000
B2   B   0.722147211569116   0.777762252607785   0.624928639400088   1.0000000
B2   B   0.555646049458010   0.277687283875326   0.624988535617285   1.0000000
B2   B   0.888934560541808   0.277869121083629   0.624905185059480   1.0000000
B2   B   0.222114313780899   0.777723823557116   0.125112682773988   1.0000000
B2   B   0.055571080725551   0.277718292294667   0.125071360599911   1.0000000
B2   B   0.388817850949748   0.277635701899506   0.125590417031204   1.0000000
B2   B   0.555615041038670   0.777762252607785   0.125071360599911   1.0000000
B2   B   0.888960199275460   0.777900969265490   0.125092275767510   1.0000000
B2   B   0.722147211569116   0.277718292294667   0.125071360599911   1.0000000
B2   B   0.055432364067842   0.944373134057868   0.624907724232489   1.0000000
B2   B   0.388940769990026   0.944373134057868   0.624907724232489   1.0000000
B2   B   0.222214446727697   0.444574887787544   0.624975130324128   1.0000000
B2   B   0.555697631433832   0.444515482383580   0.624409582968798   1.0000000
B2   B   0.722278333808317   0.944556667616635   0.624893412402277   1.0000000
B2   B   0.888960199275460   0.444392563343303   0.624907724232489   1.0000000
B2   B   0.055432364067842   0.444392563343303   0.125092275767510   1.0000000
B2   B   0.222254019876872   0.944508039753746   0.125112438376550   1.0000000
B2   B   0.555464212249707   0.944398772791521   0.125094814940521   1.0000000
B2   B   0.388817850949748   0.444515482383580   0.125590417031204   1.0000000
B2   B   0.888934560541808   0.944398772791521   0.125094814940521   1.0000000
B2   B   0.722360441059846   0.444574887787544   0.125024869675872   1.0000000
B2   B   0.222254019876873   0.611079313456464   0.624887561623450   1.0000000
B2   B   0.055571080725551   0.111186121764220   0.624928639400088   1.0000000
B2   B   0.555646049458010   0.611292098916019   0.624988535617287   1.0000000
B2   B   0.388758445545784   0.110972892273488   0.624975130324128   1.0000000
B2   B   0.888825293579582   0.611079313456464   0.624887561623450   1.0000000
B2   B   0.055609509776219   0.611219019552437   0.125112682773988   1.0000000
B2   B   0.722278333808317   0.111054999525018   0.624893412402277   1.0000000
B2   B   0.222214446727697   0.110972892273488   0.125024869675872   1.0000000
B2   B   0.388758445545784   0.611118886605639   0.125024869675872   1.0000000
B2   B   0.722360441059848   0.611118886605639   0.125024869675872   1.0000000
B2   B   0.555615041038670   0.111186121764220   0.125071360599911   1.0000000
B2   B   0.388758445545784   0.611118886605639   0.624975130324128   1.0000000
B2   B   0.888776665716693   0.111054999525018   0.125106587597723   1.0000000
B2   B   0.222114313780899   0.777723823557116   0.624887317226012   1.0000000
B2   B   0.055571080725551   0.277718292294667   0.624928639400088   1.0000000
B2   B   0.388817850949748   0.277635701899506   0.624409582968798   1.0000000
B2   B   0.555615041038670   0.777762252607785   0.624928639400088   1.0000000
B2   B   0.888960199275460   0.777900969265490   0.624907724232489   1.0000000
B2   B   0.722147211569116   0.277718292294667   0.624928639400088   1.0000000
B2   B   0.055609509776219   0.777723823557116   0.125112682773988   1.0000000
B2   B   0.388940769990026   0.777900969265490   0.125092275767510   1.0000000
B2   B   0.222041234417317   0.277687283875326   0.125011464382712   1.0000000
B2   B   0.722147211569116   0.777762252607785   0.125071360599911   1.0000000
B2   B   0.555646049458010   0.277687283875326   0.125011464382713   1.0000000
B2   B   0.888934560541808   0.277869121083629   0.125094814940521   1.0000000
B2   B   0.055432364067842   0.444392563343303   0.624907724232489   1.0000000
B2   B   0.222254019876873   0.944508039753746   0.624887561623450   1.0000000
B2   B   0.555464212249707   0.944398772791521   0.624905185059480   1.0000000
B2   B   0.388817850949748   0.444515482383580   0.624409582968798   1.0000000
B2   B   0.888934560541808   0.944398772791521   0.624905185059480   1.0000000
B2   B   0.055432364067842   0.944373134057868   0.125092275767511   1.0000000
B2   B   0.722360441059848   0.444574887787544   0.624975130324128   1.0000000
B2   B   0.388940769990026   0.944373134057868   0.125092275767510   1.0000000
B2   B   0.222214446727697   0.444574887787544   0.125024869675872   1.0000000
B2   B   0.222254019876873   0.611079313456464   0.125112438376550   1.0000000
B2   B   0.555697631433832   0.444515482383580   0.125590417031204   1.0000000
B2   B   0.722278333808317   0.944556667616635   0.125106587597723   1.0000000
B2   B   0.888960199275460   0.444392563343303   0.125092275767510   1.0000000
B2   B   0.055609509776219   0.611219019552437   0.624887317226012   1.0000000
B2   B   0.222214446727697   0.110972892273488   0.624975130324128   1.0000000
B2   B   0.722360441059848   0.611118886605639   0.624975130324128   1.0000000
B2   B   0.555615041038670   0.111186121764220   0.624928639400088   1.0000000
B2   B   0.888776665716693   0.111054999525018   0.624893412402277   1.0000000


