data_1
_audit_creation_method   'vasp2cif'
_cell_length_a    14.93631414619966
_cell_length_b    14.936314146199727
_cell_length_c    13.341276283792837
_cell_angle_alpha    90.0
_cell_angle_beta    90.0
_cell_angle_gamma    119.99999999999984

_symmetry_space_group_name_H-M    'P 1'
loop_
_atom_site_label
_atom_site_type_symbol
_atom_site_fract_x
_atom_site_fract_y
_atom_site_fract_z
_atom_site_occupancy
Se2   Se   0.555555555555557   0.444444444444443   0.375000000000000   1.0000000
N2   N   0.111094338613279   0.055545819807298   0.125033780584190   1.0000000
N2   N   0.611141356688774   0.555616046710882   0.124305040198870   1.0000000
N2   N   0.444455562415806   0.055583326532245   0.125157369198013   1.0000000
N2   N   0.944416673467762   0.555544437584193   0.125157369198013   1.0000000
N2   N   0.777783806721921   0.055558570027625   0.124972019272953   1.0000000
N2   N   0.111101886072346   0.722217609702837   0.624958239176117   1.0000000
N2   N   0.444455562415806   0.722205569216896   0.624842630801987   1.0000000
N2   N   0.277724921631356   0.222206374594960   0.624942327001364   1.0000000
N2   N   0.777793625405047   0.722275078368644   0.624942327001364   1.0000000
N2   N   0.611148119630275   0.222206374594960   0.624942327001364   1.0000000
N2   N   0.944441429972368   0.222216193278079   0.625027980727046   1.0000000
N2   N   0.277782390297163   0.722217609702837   0.125041760823883   1.0000000
N2   N   0.111066447950931   0.222199890642133   0.125006437494998   1.0000000
N2   N   0.444474890197345   0.222283113728026   0.125268692005005   1.0000000
N2   N   0.611148119630275   0.722275078368644   0.125057672998636   1.0000000
N2   N   0.944416673467762   0.722205569216896   0.125157369198013   1.0000000
N2   N   0.777800109357867   0.222199890642133   0.125006437494998   1.0000000
N2   N   0.111113144653387   0.888886855346612   0.624953502571328   1.0000000
N2   N   0.444440377359897   0.888886855346612   0.624953502571328   1.0000000
N2   N   0.277724921631356   0.388851880369725   0.624942327001364   1.0000000
N2   N   0.611141356688774   0.388858643311227   0.625694959801130   1.0000000
N2   N   0.777800109357867   0.888933552049069   0.624993562505002   1.0000000
N2   N   0.944454180192702   0.388881852139309   0.624966219415810   1.0000000
N2   N   0.111094338613279   0.388881852139309   0.125033780584190   1.0000000
N2   N   0.277782390297163   0.888898113927654   0.125041760823883   1.0000000
N2   N   0.611118147860690   0.888905661386721   0.125033780584190   1.0000000
N2   N   0.444383953289118   0.388858643311227   0.124305040198870   1.0000000
N2   N   0.944454180192702   0.888905661386721   0.125033780584190   1.0000000
N2   N   0.777793625405047   0.388851880369725   0.125057672998636   1.0000000
N2   N   0.277794430783103   0.555544437584193   0.624842630801987   1.0000000
N2   N   0.111094338613279   0.055545819807298   0.624966219415810   1.0000000
N2   N   0.611141356688774   0.555616046710882   0.625694959801130   1.0000000
N2   N   0.444455562415806   0.055583326532245   0.624842630801987   1.0000000
N2   N   0.944416673467762   0.555544437584193   0.624842630801987   1.0000000
N2   N   0.111113144653387   0.555559622640103   0.125046497428671   1.0000000
N2   N   0.777783806721921   0.055558570027625   0.625027980727046   1.0000000
N2   N   0.277794430783103   0.055583326532245   0.125157369198013   1.0000000
N2   N   0.444474890197345   0.555525109802655   0.125268692005005   1.0000000
N2   N   0.777716886271974   0.555525109802655   0.125268692005005   1.0000000
N2   N   0.611118147860690   0.055545819807298   0.125033780584190   1.0000000
N2   N   0.444474890197345   0.555525109802655   0.624731307994995   1.0000000
N2   N   0.944441429972368   0.055558570027625   0.124972019272953   1.0000000
N2   N   0.277782390297163   0.722217609702837   0.624958239176117   1.0000000
N2   N   0.111066447950931   0.222199890642133   0.624993562505002   1.0000000
N2   N   0.444474890197345   0.222283113728026   0.624731307994995   1.0000000
N2   N   0.611148119630275   0.722275078368644   0.624942327001364   1.0000000
N2   N   0.944416673467762   0.722205569216896   0.624842630801987   1.0000000
N2   N   0.777800109357867   0.222199890642133   0.624993562505002   1.0000000
N2   N   0.111101886072346   0.722217609702837   0.125041760823883   1.0000000
N2   N   0.444455562415806   0.722205569216896   0.125157369198013   1.0000000
N2   N   0.277724921631356   0.222206374594960   0.125057672998636   1.0000000
N2   N   0.777793625405047   0.722275078368644   0.125057672998636   1.0000000
N2   N   0.611148119630275   0.222206374594960   0.125057672998636   1.0000000
N2   N   0.944441429972368   0.222216193278079   0.124972019272953   1.0000000
N2   N   0.111094338613279   0.388881852139309   0.624966219415810   1.0000000
N2   N   0.277782390297163   0.888898113927654   0.624958239176117   1.0000000
N2   N   0.611118147860690   0.888905661386721   0.624966219415810   1.0000000
N2   N   0.444383953289118   0.388858643311227   0.625694959801130   1.0000000
N2   N   0.944454180192702   0.888905661386721   0.624966219415810   1.0000000
N2   N   0.111113144653387   0.888886855346612   0.125046497428671   1.0000000
N2   N   0.777793625405047   0.388851880369725   0.624942327001364   1.0000000
N2   N   0.444440377359897   0.888886855346612   0.125046497428671   1.0000000
N2   N   0.277724921631356   0.388851880369725   0.125057672998636   1.0000000
N2   N   0.277794430783103   0.555544437584193   0.125157369198013   1.0000000
N2   N   0.611141356688774   0.388858643311227   0.124305040198870   1.0000000
N2   N   0.777800109357867   0.888933552049069   0.125006437494998   1.0000000
N2   N   0.944454180192702   0.388881852139309   0.125033780584190   1.0000000
N2   N   0.111113144653387   0.555559622640103   0.624953502571328   1.0000000
N2   N   0.277794430783103   0.055583326532245   0.624842630801987   1.0000000
N2   N   0.777716886271974   0.555525109802655   0.624731307994995   1.0000000
N2   N   0.611118147860690   0.055545819807298   0.624966219415810   1.0000000
N2   N   0.944441429972368   0.055558570027625   0.625027980727046   1.0000000
N2   N   0.054665120157563   0.110562994628250   0.375000000000000   1.0000000
N2   N   0.554411728409459   0.619617577684808   0.375000000000000   1.0000000
N2   N   0.387240246447038   0.107813826227419   0.375000000000000   1.0000000
N2   N   0.892186173772582   0.612759753552962   0.375000000000000   1.0000000
N2   N   0.722564541137352   0.110562994628250   0.375000000000000   1.0000000
N2   N   0.055553349601404   0.777776477893632   0.875000000000000   1.0000000
N2   N   0.388889794958893   0.777776477893632   0.875000000000000   1.0000000
N2   N   0.222219377609623   0.277776355471476   0.875000000000000   1.0000000
N2   N   0.722223644528525   0.777780622390377   0.875000000000000   1.0000000
N2   N   0.555553761114929   0.277773469000046   0.875000000000000   1.0000000
N2   N   0.888892562563832   0.277782864869722   0.875000000000000   1.0000000
N2   N   0.222222222222221   0.777777777777779   0.375000000000000   1.0000000
N2   N   0.054665120157563   0.277435458862648   0.375000000000000   1.0000000
N2   N   0.380382422315192   0.268127484057980   0.375000000000000   1.0000000
N2   N   0.554977017416575   0.781323301057457   0.375000000000000   1.0000000
N2   N   0.893012950307546   0.781323301057457   0.375000000000000   1.0000000
N2   N   0.723520664492940   0.276479335507059   0.375000000000000   1.0000000
N2   N   0.055558111672137   0.944441888327863   0.875000000000000   1.0000000
N2   N   0.388889794958893   0.944446650398596   0.875000000000000   1.0000000
N2   N   0.222222066477086   0.444448068680197   0.875000000000000   1.0000000
N2   N   0.555555555555557   0.444444444444443   0.875000000000000   1.0000000
N2   N   0.722217135130279   0.944443031027446   0.875000000000000   1.0000000
N2   N   0.888892668869783   0.444448068680197   0.875000000000000   1.0000000
N2   N   0.055745995325985   0.444825323985305   0.375000000000000   1.0000000
N2   N   0.221730424434021   0.943201358305956   0.375000000000000   1.0000000
N2   N   0.555174676014695   0.944254004674015   0.375000000000000   1.0000000
N2   N   0.380382422315192   0.445588271590548   0.375000000000000   1.0000000
N2   N   0.889437005371750   0.945334879842438   0.375000000000000   1.0000000
N2   N   0.731872515942020   0.445588271590548   0.375000000000000   1.0000000
N2   N   0.222223522106368   0.611110205041107   0.875000000000000   1.0000000
N2   N   0.055556968972554   0.111107437436168   0.875000000000000   1.0000000
N2   N   0.555553761114929   0.611113625448226   0.875000000000000   1.0000000
N2   N   0.388890900423671   0.111115134180685   0.875000000000000   1.0000000
N2   N   0.888884865819314   0.611109099576329   0.875000000000000   1.0000000
N2   N   0.056798641694044   0.611862399461401   0.375000000000000   1.0000000
N2   N   0.722217135130279   0.111107437436168   0.875000000000000   1.0000000
N2   N   0.218676698942543   0.106987049692454   0.375000000000000   1.0000000
N2   N   0.387240246447038   0.612759753552962   0.375000000000000   1.0000000
N2   N   0.731872515942020   0.619617577684808   0.375000000000000   1.0000000
N2   N   0.554977017416575   0.106987049692454   0.375000000000000   1.0000000
N2   N   0.388890900423671   0.611109099576329   0.875000000000000   1.0000000
N2   N   0.888888888888886   0.111111111111114   0.375000000000000   1.0000000
N2   N   0.222222222222221   0.777777777777779   0.875000000000000   1.0000000
N2   N   0.055556968972554   0.277782864869722   0.875000000000000   1.0000000
N2   N   0.388886374551774   0.277773469000046   0.875000000000000   1.0000000
N2   N   0.555551931319796   0.777777933522915   0.875000000000000   1.0000000
N2   N   0.888892668869783   0.777777933522915   0.875000000000000   1.0000000
N2   N   0.722223644528525   0.277776355471476   0.875000000000000   1.0000000
N2   N   0.056798641694044   0.778269575565979   0.375000000000000   1.0000000
N2   N   0.388137600538599   0.778269575565979   0.375000000000000   1.0000000
N2   N   0.219625337680783   0.276479335507059   0.375000000000000   1.0000000
N2   N   0.723520664492940   0.780374662319217   0.375000000000000   1.0000000
N2   N   0.554411728409459   0.268127484057980   0.375000000000000   1.0000000
N2   N   0.889437005371750   0.277435458862648   0.375000000000000   1.0000000
N2   N   0.055558111672137   0.444449556677603   0.875000000000000   1.0000000
N2   N   0.222223522106368   0.944446650398596   0.875000000000000   1.0000000
N2   N   0.555550443322397   0.944441888327863   0.875000000000000   1.0000000
N2   N   0.388886374551774   0.444446238885071   0.875000000000000   1.0000000
N2   N   0.888892562563832   0.944443031027446   0.875000000000000   1.0000000
N2   N   0.055745995325985   0.944254004674015   0.375000000000000   1.0000000
N2   N   0.722226530999954   0.444446238885071   0.875000000000000   1.0000000
N2   N   0.388137600538599   0.943201358305956   0.375000000000000   1.0000000
N2   N   0.218676698942543   0.445022982583425   0.375000000000000   1.0000000
N2   N   0.221730424434021   0.611862399461401   0.375000000000000   1.0000000
N2   N   0.722564541137352   0.945334879842438   0.375000000000000   1.0000000
N2   N   0.893012950307546   0.445022982583425   0.375000000000000   1.0000000
N2   N   0.055553349601404   0.611110205041107   0.875000000000000   1.0000000
N2   N   0.222222066477086   0.111107331130217   0.875000000000000   1.0000000
N2   N   0.722226530999954   0.611113625448226   0.875000000000000   1.0000000
N2   N   0.555551931319796   0.111107331130217   0.875000000000000   1.0000000
N2   N   0.888888888888886   0.111111111111114   0.875000000000000   1.0000000
B2   B   0.109196405955949   0.054028814808598   0.375000000000000   1.0000000
B2   B   0.624025959528647   0.581385252390629   0.375000000000000   1.0000000
B2   B   0.443865308547158   0.053260342296569   0.375000000000000   1.0000000
B2   B   0.946739657703431   0.556134691452842   0.375000000000000   1.0000000
B2   B   0.778182906682039   0.055758120007691   0.375000000000000   1.0000000
B2   B   0.111104081639358   0.722218707486343   0.875000000000000   1.0000000
B2   B   0.444449619913991   0.722219409377710   0.875000000000000   1.0000000
B2   B   0.277776820179179   0.222224175113590   0.875000000000000   1.0000000
B2   B   0.777775824886411   0.722223179820822   0.875000000000000   1.0000000
B2   B   0.611114021601083   0.222224175113590   0.875000000000000   1.0000000
B2   B   0.944447030390063   0.222227394113455   0.875000000000000   1.0000000
B2   B   0.277443569641798   0.722556430358201   0.375000000000000   1.0000000
B2   B   0.109269060998888   0.221301197166108   0.375000000000000   1.0000000
B2   B   0.442113996386738   0.217561326106818   0.375000000000000   1.0000000
B2   B   0.611332659587647   0.728507534403294   0.375000000000000   1.0000000
B2   B   0.946739657703431   0.723938299583925   0.375000000000000   1.0000000
B2   B   0.778698802833892   0.221301197166108   0.375000000000000   1.0000000
B2   B   0.111110564666978   0.888889435333022   0.875000000000000   1.0000000
B2   B   0.444445537332716   0.888889435333022   0.875000000000000   1.0000000
B2   B   0.277776820179179   0.388885978398917   0.875000000000000   1.0000000
B2   B   0.611121016838271   0.388878983161729   0.875000000000000   1.0000000
B2   B   0.777776967007384   0.888887267348097   0.875000000000000   1.0000000
B2   B   0.944441962408799   0.388888143864003   0.875000000000000   1.0000000
B2   B   0.109196405955949   0.388500924480680   0.375000000000000   1.0000000
B2   B   0.277443569641798   0.888220472616932   0.375000000000000   1.0000000
B2   B   0.611499075519321   0.890803594044051   0.375000000000000   1.0000000
B2   B   0.418614747609372   0.375974040471353   0.375000000000000   1.0000000
B2   B   0.945971185191402   0.890803594044051   0.375000000000000   1.0000000
B2   B   0.783841541482318   0.388667340412353   0.375000000000000   1.0000000
B2   B   0.277780590622290   0.555550380086009   0.875000000000000   1.0000000
B2   B   0.111112848121875   0.055558037591201   0.875000000000000   1.0000000
B2   B   0.611121016838271   0.555575367009878   0.875000000000000   1.0000000
B2   B   0.444449619913991   0.055563543869617   0.875000000000000   1.0000000
B2   B   0.944436456130383   0.555550380086009   0.875000000000000   1.0000000
B2   B   0.111227423075205   0.555788179483745   0.375000000000000   1.0000000
B2   B   0.777772605886545   0.055552969609937   0.875000000000000   1.0000000
B2   B   0.276061700416075   0.053260342296569   0.375000000000000   1.0000000
B2   B   0.442113996386738   0.557886003613262   0.375000000000000   1.0000000
B2   B   0.782438673893182   0.557886003613262   0.375000000000000   1.0000000
B2   B   0.611499075519321   0.054028814808598   0.375000000000000   1.0000000
B2   B   0.444449390354454   0.555550609645546   0.875000000000000   1.0000000
B2   B   0.944241879992308   0.055758120007691   0.375000000000000   1.0000000
B2   B   0.277781292513657   0.722218707486343   0.875000000000000   1.0000000
B2   B   0.111112732651903   0.222223032992616   0.875000000000000   1.0000000
B2   B   0.444449390354454   0.222232114042244   0.875000000000000   1.0000000
B2   B   0.611114021601083   0.722223179820822   0.875000000000000   1.0000000
B2   B   0.944436456130383   0.722219409377710   0.875000000000000   1.0000000
B2   B   0.777776967007384   0.222223032992616   0.875000000000000   1.0000000
B2   B   0.111779527383068   0.722556430358201   0.375000000000000   1.0000000
B2   B   0.443865308547158   0.723938299583925   0.375000000000000   1.0000000
B2   B   0.271492465596706   0.216158458517682   0.375000000000000   1.0000000
B2   B   0.783841541482318   0.728507534403294   0.375000000000000   1.0000000
B2   B   0.611332659587647   0.216158458517682   0.375000000000000   1.0000000
B2   B   0.944241879992308   0.221817093317961   0.375000000000000   1.0000000
B2   B   0.111112848121875   0.388888143864003   0.875000000000000   1.0000000
B2   B   0.277781292513657   0.888895918360643   0.875000000000000   1.0000000
B2   B   0.611111856135997   0.888887151878125   0.875000000000000   1.0000000
B2   B   0.444424632990122   0.388878983161729   0.875000000000000   1.0000000
B2   B   0.944441962408799   0.888887151878125   0.875000000000000   1.0000000
B2   B   0.111227423075205   0.888772576924795   0.375000000000000   1.0000000
B2   B   0.777775824886411   0.388885978398917   0.875000000000000   1.0000000
B2   B   0.444211820516255   0.888772576924795   0.375000000000000   1.0000000
B2   B   0.271492465596706   0.388667340412353   0.375000000000000   1.0000000
B2   B   0.276061700416075   0.556134691452842   0.375000000000000   1.0000000
B2   B   0.624025959528647   0.375974040471353   0.375000000000000   1.0000000
B2   B   0.778698802833892   0.890730939001112   0.375000000000000   1.0000000
B2   B   0.945971185191402   0.388500924480680   0.375000000000000   1.0000000
B2   B   0.111110564666978   0.555554462667284   0.875000000000000   1.0000000
B2   B   0.277780590622290   0.055563543869617   0.875000000000000   1.0000000
B2   B   0.777767885957756   0.555550609645546   0.875000000000000   1.0000000
B2   B   0.611111856135997   0.055558037591201   0.875000000000000   1.0000000
B2   B   0.944447030390063   0.055552969609937   0.875000000000000   1.0000000
B2   B   0.055531574971509   0.111108259847823   0.124990596987510   1.0000000
B2   B   0.555595214140307   0.611164835143570   0.124941359936146   1.0000000
B2   B   0.388904367941575   0.111142069216486   0.125194525093727   1.0000000
B2   B   0.888857930783514   0.611095632058425   0.125194525093727   1.0000000
B2   B   0.722243351542978   0.111108259847823   0.124990596987510   1.0000000
B2   B   0.055542343374874   0.777775510441561   0.624971126179947   1.0000000
B2   B   0.388899833733352   0.777775510441561   0.624971126179947   1.0000000
B2   B   0.222177434343328   0.277755383838332   0.625008780238999   1.0000000
B2   B   0.722244616161668   0.777822565656672   0.625008780238999   1.0000000
B2   B   0.555595214140307   0.277763712330073   0.625058640063853   1.0000000
B2   B   0.888891740152177   0.277756648457022   0.625009403012490   1.0000000
B2   B   0.222222222222221   0.777777777777779   0.124993871394804   1.0000000
B2   B   0.055531574971509   0.277756648457022   0.124990596987510   1.0000000
B2   B   0.388835164856430   0.277763712330073   0.124941359936146   1.0000000
B2   B   0.555596593905410   0.777798219131657   0.125077331352070   1.0000000
B2   B   0.888868291892911   0.777798219131657   0.125077331352070   1.0000000
B2   B   0.722244616161668   0.277755383838332   0.124991219761001   1.0000000
B2   B   0.055544714548945   0.944455285451055   0.624999240700598   1.0000000
B2   B   0.388899833733352   0.944457656625127   0.624971126179947   1.0000000
B2   B   0.222201780868343   0.444403406094590   0.624922668647930   1.0000000
B2   B   0.555555555555557   0.444444444444443   0.625683415867785   1.0000000
B2   B   0.722243351542978   0.944468425028491   0.625009403012490   1.0000000
B2   B   0.888868291892911   0.444403406094590   0.624922668647930   1.0000000
B2   B   0.055544714548945   0.444422762431225   0.125000759299402   1.0000000
B2   B   0.222224489558438   0.944457656625127   0.125028873820053   1.0000000
B2   B   0.555577237568775   0.944455285451055   0.125000759299402   1.0000000
B2   B   0.388835164856430   0.444404785859694   0.124941359936146   1.0000000
B2   B   0.888891740152177   0.944468425028491   0.124990596987510   1.0000000
B2   B   0.722236287669928   0.444404785859694   0.124941359936146   1.0000000
B2   B   0.222224489558438   0.611100166266648   0.624971126179947   1.0000000
B2   B   0.055531574971509   0.111108259847823   0.625009403012490   1.0000000
B2   B   0.555595214140307   0.611164835143570   0.625058640063853   1.0000000
B2   B   0.388904367941575   0.111142069216486   0.624805474906273   1.0000000
B2   B   0.888857930783514   0.611095632058425   0.624805474906273   1.0000000
B2   B   0.055542343374874   0.611100166266648   0.125028873820053   1.0000000
B2   B   0.722243351542978   0.111108259847823   0.625009403012490   1.0000000
B2   B   0.222201780868343   0.111131708107089   0.125077331352070   1.0000000
B2   B   0.388904367941575   0.611095632058425   0.125194525093727   1.0000000
B2   B   0.722236287669928   0.611164835143570   0.124941359936146   1.0000000
B2   B   0.555596593905410   0.111131708107089   0.125077331352070   1.0000000
B2   B   0.388904367941575   0.611095632058425   0.624805474906273   1.0000000
B2   B   0.888888888888886   0.111111111111114   0.124950216192340   1.0000000
B2   B   0.222222222222221   0.777777777777779   0.625006128605196   1.0000000
B2   B   0.055531574971509   0.277756648457022   0.625009403012490   1.0000000
B2   B   0.388835164856430   0.277763712330073   0.625058640063853   1.0000000
B2   B   0.555596593905410   0.777798219131657   0.624922668647930   1.0000000
B2   B   0.888868291892911   0.777798219131657   0.624922668647930   1.0000000
B2   B   0.722244616161668   0.277755383838332   0.625008780238999   1.0000000
B2   B   0.055542343374874   0.777775510441561   0.125028873820053   1.0000000
B2   B   0.388899833733352   0.777775510441561   0.125028873820053   1.0000000
B2   B   0.222177434343328   0.277755383838332   0.124991219761001   1.0000000
B2   B   0.722244616161668   0.777822565656672   0.124991219761001   1.0000000
B2   B   0.555595214140307   0.277763712330073   0.124941359936146   1.0000000
B2   B   0.888891740152177   0.277756648457022   0.124990596987510   1.0000000
B2   B   0.055544714548945   0.444422762431225   0.624999240700598   1.0000000
B2   B   0.222224489558438   0.944457656625127   0.624971126179947   1.0000000
B2   B   0.555577237568775   0.944455285451055   0.624999240700598   1.0000000
B2   B   0.388835164856430   0.444404785859694   0.625058640063853   1.0000000
B2   B   0.888891740152177   0.944468425028491   0.625009403012490   1.0000000
B2   B   0.055544714548945   0.944455285451055   0.125000759299402   1.0000000
B2   B   0.722236287669928   0.444404785859694   0.625058640063853   1.0000000
B2   B   0.388899833733352   0.944457656625127   0.125028873820053   1.0000000
B2   B   0.222201780868343   0.444403406094590   0.125077331352070   1.0000000
B2   B   0.222224489558438   0.611100166266648   0.125028873820053   1.0000000
B2   B   0.555555555555557   0.444444444444443   0.124316584132215   1.0000000
B2   B   0.722243351542978   0.944468425028491   0.124990596987510   1.0000000
B2   B   0.888868291892911   0.444403406094590   0.125077331352070   1.0000000
B2   B   0.055542343374874   0.611100166266648   0.624971126179947   1.0000000
B2   B   0.222201780868343   0.111131708107089   0.624922668647930   1.0000000
B2   B   0.722236287669928   0.611164835143570   0.625058640063853   1.0000000
B2   B   0.555596593905410   0.111131708107089   0.624922668647930   1.0000000
B2   B   0.888888888888886   0.111111111111114   0.625049783807660   1.0000000


