data_1
_audit_creation_method   'vasp2cif'
_cell_length_a    17.52789999999977
_cell_length_b    17.52789999999977
_cell_length_c    15.0
_cell_angle_alpha    90.0
_cell_angle_beta    90.0
_cell_angle_gamma    119.99999999999916

_symmetry_space_group_name_H-M    'P 1'
loop_
_atom_site_label
_atom_site_type_symbol
_atom_site_fract_x
_atom_site_fract_y
_atom_site_fract_z
_atom_site_occupancy
B2   B   0.910090797583595   0.955255309731760   0.110677099125008   1.0000000
B2   B   0.908519849182543   0.096419599637763   0.110792879900172   1.0000000
B2   B   0.908092802061508   0.238295582919369   0.110754671173276   1.0000000
B2   B   0.908452506368039   0.380726317641801   0.110687788966826   1.0000000
B2   B   0.909707865019689   0.523875186934654   0.110740828537206   1.0000000
B2   B   0.910638579564104   0.667398805405559   0.110775762430551   1.0000000
B2   B   0.907890738396156   0.810066808589904   0.110725570022125   1.0000000
B2   B   0.051105872391303   0.953791833747376   0.110704146242814   1.0000000
B2   B   0.051839404150064   0.097019315860407   0.110780338231738   1.0000000
B2   B   0.050706335263320   0.238770843364795   0.110840044763982   1.0000000
B2   B   0.050035146926477   0.381327720144190   0.110726828525258   1.0000000
B2   B   0.050089248283771   0.524571376184753   0.110695477862844   1.0000000
B2   B   0.050880479148762   0.667957119105312   0.110759353329423   1.0000000
B2   B   0.050785584068463   0.810972746694670   0.110748808573518   1.0000000
B2   B   0.193340044187852   0.953949344750695   0.110725261816216   1.0000000
B2   B   0.194361567972531   0.097226211485549   0.110709815755614   1.0000000
B2   B   0.193775825411533   0.239506739584372   0.110783437185691   1.0000000
B2   B   0.191654368736963   0.381452210473305   0.110723518157785   1.0000000
B2   B   0.190274583349553   0.524947037430616   0.110689885053602   1.0000000
B2   B   0.191093924732558   0.668433468913967   0.110733882505669   1.0000000
B2   B   0.192688110435595   0.811246107519999   0.110737460950082   1.0000000
B2   B   0.335497541673472   0.953711035983193   0.110721908296953   1.0000000
B2   B   0.336189616019518   0.096391154612681   0.110755801768032   1.0000000
B2   B   0.337844607457617   0.240601877720308   0.110747319929195   1.0000000
B2   B   0.334656771749176   0.382430543533971   0.110694161541886   1.0000000
B2   B   0.329521872244623   0.525713814906118   0.110668392591726   1.0000000
B2   B   0.330612576977405   0.669110071808736   0.110724478713590   1.0000000
B2   B   0.334673748893885   0.811504989297030   0.110777572015267   1.0000000
B2   B   0.478010189149105   0.952943082165017   0.110749689173066   1.0000000
B2   B   0.478588365167071   0.094997904950403   0.110742642487360   1.0000000
B2   B   0.479203059981811   0.236845510394597   0.110792569386213   1.0000000
B2   B   0.480836852817771   0.377677231522631   0.110817110750873   1.0000000
B2   B   0.467824698229162   0.665597958085944   0.110769188794562   1.0000000
B2   B   0.477160398188831   0.810347985508868   0.110794856894945   1.0000000
B2   B   0.621149250636830   0.954738371739149   0.110765097071769   1.0000000
B2   B   0.621584859262375   0.095163123724645   0.110698729702012   1.0000000
B2   B   0.622295574335875   0.235740207439234   0.110717393613557   1.0000000
B2   B   0.624474158257009   0.375899727989082   0.110815678373723   1.0000000
B2   B   0.630534434413640   0.516057173641404   0.110828596107109   1.0000000
B2   B   0.621555220350921   0.815331898407266   0.110731518648506   1.0000000
B2   B   0.765563213958874   0.954721916679524   0.110704235564609   1.0000000
B2   B   0.765029557088952   0.095882700915774   0.110729014291616   1.0000000
B2   B   0.765373696524322   0.237400674555846   0.110675190806838   1.0000000
B2   B   0.766730758108763   0.379384865450213   0.110706211934803   1.0000000
B2   B   0.769637610134673   0.522375449562748   0.110788791255653   1.0000000
B2   B   0.769442762903361   0.664805134837811   0.110746352121812   1.0000000
B2   B   0.768754085306780   0.815119727460718   0.110689009080225   1.0000000
Ga2   Ga   0.616709874086532   0.662674630048353   0.111036405826758   1.0000000
N2   N   0.955769422127495   0.905667636828767   0.110678696416373   1.0000000
N2   N   0.957093641669518   0.049833453413904   0.110741914333340   1.0000000
N2   N   0.955917768616377   0.191228758478313   0.110804183869885   1.0000000
N2   N   0.955475415951649   0.333263913849005   0.110700333102496   1.0000000
N2   N   0.955715305670289   0.475887825433793   0.110688144497387   1.0000000
N2   N   0.956444717121670   0.619135680970608   0.110749868385427   1.0000000
N2   N   0.955585733041437   0.762524091994892   0.110747436620110   1.0000000
N2   N   0.098356755523989   0.906185696535534   0.110698759258626   1.0000000
N2   N   0.099277629633249   0.049419948301175   0.110697343005841   1.0000000
N2   N   0.099231914111237   0.192058845289497   0.110818123192302   1.0000000
N2   N   0.097529531256777   0.333709513950799   0.110755572415421   1.0000000
N2   N   0.096444086864522   0.476421955600002   0.110669395676905   1.0000000
N2   N   0.096933080503771   0.619787900464374   0.110712415154342   1.0000000
N2   N   0.097782266852619   0.763143286857557   0.110733675239998   1.0000000
N2   N   0.240566608237658   0.906401253022231   0.110705043123942   1.0000000
N2   N   0.241464852108872   0.049483860856543   0.110708985489150   1.0000000
N2   N   0.243009456807230   0.193431043159677   0.110709013129210   1.0000000
N2   N   0.240756462051079   0.334695153448937   0.110731159964902   1.0000000
N2   N   0.236668918744664   0.476311218026906   0.110670073779590   1.0000000
N2   N   0.236909808930303   0.620095305809506   0.110693452484837   1.0000000
N2   N   0.239663338284834   0.763532481251440   0.110749046865573   1.0000000
N2   N   0.382931839955786   0.906331473588779   0.110734020954892   1.0000000
N2   N   0.383615437335612   0.048972513791066   0.110725538482064   1.0000000
N2   N   0.384710143357973   0.192523456317495   0.110754572293493   1.0000000
N2   N   0.388120179843728   0.339322664071817   0.110744084232975   1.0000000
N2   N   0.376200302736944   0.476840259062888   0.110599727258426   1.0000000
N2   N   0.374997054713388   0.620005621279253   0.110691607775335   1.0000000
N2   N   0.381712254771095   0.763750183489733   0.110765362405349   1.0000000
N2   N   0.525643531174263   0.905535629743654   0.110769657125461   1.0000000
N2   N   0.526296484700602   0.047989339968969   0.110706699240585   1.0000000
N2   N   0.526974116691242   0.190275712478382   0.110739683737155   1.0000000
N2   N   0.528945634736463   0.333415860956783   0.110808356449025   1.0000000
N2   N   0.464502309332797   0.519183674365812   0.110543959876808   1.0000000
N2   N   0.501316783387468   0.606587527718488   0.110712385396340   1.0000000
N2   N   0.524374318306042   0.761554467431140   0.110779293387034   1.0000000
N2   N   0.669573050027835   0.909100164295631   0.110708651712735   1.0000000
N2   N   0.669634248529366   0.048972949840450   0.110721630210424   1.0000000
N2   N   0.670009277963954   0.189691569630077   0.110661179857058   1.0000000
N2   N   0.671190447430197   0.330211376248550   0.110728734819334   1.0000000
N2   N   0.673714513060603   0.469274819095954   0.110805627460207   1.0000000
N2   N   0.674925139923541   0.605568403767358   0.110751947058719   1.0000000
N2   N   0.676117491624805   0.777290568815117   0.110713843633194   1.0000000
N2   N   0.815680014803395   0.909058526330755   0.110635474896882   1.0000000
N2   N   0.813290805431865   0.049219274533237   0.110737360935291   1.0000000
N2   N   0.813022344094912   0.190626807308805   0.110689866387548   1.0000000
N2   N   0.813492365442051   0.332378442905107   0.110660513306739   1.0000000
N2   N   0.814937123320219   0.474573578611990   0.110730483308971   1.0000000
N2   N   0.816052106395300   0.617627405939134   0.110752370001693   1.0000000
N2   N   0.811595961557577   0.760922454918033   0.110712086146542   1.0000000


