data_1
_audit_creation_method   'vasp2cif'
_cell_length_a    14.93631414619966
_cell_length_b    14.936314146199727
_cell_length_c    13.341276283792837
_cell_angle_alpha    90.0
_cell_angle_beta    90.0
_cell_angle_gamma    119.99999999999984

_symmetry_space_group_name_H-M    'P 1'
loop_
_atom_site_label
_atom_site_type_symbol
_atom_site_fract_x
_atom_site_fract_y
_atom_site_fract_z
_atom_site_occupancy
C2   C   0.609187346546739   0.386162201501951   0.375000000000000   1.0000000
C2   C   0.443641521621877   0.386162201501951   0.375000000000000   1.0000000
C2   C   0.553644887204826   0.440623107742981   0.375000000000000   1.0000000
N2   N   0.111177273473539   0.055645846399749   0.125086867025864   1.0000000
N2   N   0.611266909533072   0.555867152399478   0.124286530270204   1.0000000
N2   N   0.444489712823677   0.055665701820433   0.125115100240023   1.0000000
N2   N   0.944460354732559   0.555616754578880   0.125084403729483   1.0000000
N2   N   0.777832710861326   0.055684331228066   0.125010359093085   1.0000000
N2   N   0.111135629173199   0.722271500448982   0.624981669532652   1.0000000
N2   N   0.444490470790933   0.722303537125858   0.624954197355264   1.0000000
N2   N   0.277862006245934   0.222343018031653   0.624790670540337   1.0000000
N2   N   0.777880926433042   0.722436171793126   0.625095959108761   1.0000000
N2   N   0.611147678452391   0.222343018031653   0.624790670540337   1.0000000
N2   N   0.944494509558842   0.222322352451011   0.624972925421258   1.0000000
N2   N   0.277802537942454   0.722271500448982   0.125018330467347   1.0000000
N2   N   0.111169677913495   0.222308606957199   0.125102339093804   1.0000000
N2   N   0.444533350724639   0.222400034782621   0.124907840882361   1.0000000
N2   N   0.611221912026755   0.722436171793126   0.124904040891239   1.0000000
N2   N   0.944479733001596   0.722303537125858   0.125045802644736   1.0000000
N2   N   0.777805595710376   0.222308606957199   0.125102339093804   1.0000000
N2   N   0.111158531642475   0.888962079706036   0.624965001747317   1.0000000
N2   N   0.444470214730232   0.888962079706036   0.624965001747317   1.0000000
N2   N   0.277847398456895   0.388976755548702   0.624813663242880   1.0000000
N2   N   0.611186272329873   0.389034645690772   0.625038421200410   1.0000000
N2   N   0.777875925034590   0.889085183402508   0.625066641780975   1.0000000
N2   N   0.944471485001847   0.388961429373625   0.624919800660663   1.0000000
N2   N   0.111156611038456   0.388961429373625   0.125080199339338   1.0000000
N2   N   0.277813569937487   0.888960473208303   0.125006504794627   1.0000000
N2   N   0.611164688059576   0.889016009927034   0.125021026073720   1.0000000
N2   N   0.444515040027578   0.389034645690772   0.124961578799590   1.0000000
N2   N   0.944517988534130   0.889016009927034   0.125021026073720   1.0000000
N2   N   0.777796023758478   0.388976755548702   0.125186336757119   1.0000000
N2   N   0.277823066512985   0.555616754578880   0.624915596270517   1.0000000
N2   N   0.111177273473539   0.055645846399749   0.624913132974136   1.0000000
N2   N   0.611266909533072   0.555867152399478   0.625713469729796   1.0000000
N2   N   0.444489712823677   0.055665701820433   0.624884899759978   1.0000000
N2   N   0.944460354732559   0.555616754578880   0.624915596270517   1.0000000
N2   N   0.111136217763980   0.555605768861295   0.125024776380500   1.0000000
N2   N   0.777832710861326   0.055684331228066   0.624989640906915   1.0000000
N2   N   0.277842655663420   0.055665701820433   0.125115100240023   1.0000000
N2   N   0.444534781171307   0.555680561307706   0.125135092699569   1.0000000
N2   N   0.777812446803063   0.555680561307706   0.125135092699569   1.0000000
N2   N   0.611135239592881   0.055645846399749   0.125086867025864   1.0000000
N2   N   0.444534781171307   0.555680561307706   0.624864907300431   1.0000000
N2   N   0.944518287033405   0.055684331228066   0.125010359093085   1.0000000
N2   N   0.277802537942454   0.722271500448982   0.624981669532652   1.0000000
N2   N   0.111169677913495   0.222308606957199   0.624897660906196   1.0000000
N2   N   0.444533350724639   0.222400034782621   0.625092159117638   1.0000000
N2   N   0.611221912026755   0.722436171793126   0.625095959108761   1.0000000
N2   N   0.944479733001596   0.722303537125858   0.624954197355264   1.0000000
N2   N   0.777805595710376   0.222308606957199   0.624897660906196   1.0000000
N2   N   0.111135629173199   0.722271500448982   0.125018330467347   1.0000000
N2   N   0.444490470790933   0.722303537125858   0.125045802644736   1.0000000
N2   N   0.277862006245934   0.222343018031653   0.125209329459663   1.0000000
N2   N   0.777880926433042   0.722436171793126   0.124904040891239   1.0000000
N2   N   0.611147678452391   0.222343018031653   0.125209329459663   1.0000000
N2   N   0.944494509558842   0.222322352451011   0.125027074578742   1.0000000
N2   N   0.111156611038456   0.388961429373625   0.624919800660663   1.0000000
N2   N   0.277813569937487   0.888960473208303   0.624993495205373   1.0000000
N2   N   0.611164688059576   0.889016009927034   0.624978973926281   1.0000000
N2   N   0.444515040027578   0.389034645690772   0.625038421200410   1.0000000
N2   N   0.944517988534130   0.889016009927034   0.624978973926281   1.0000000
N2   N   0.111158531642475   0.888962079706036   0.125034998252683   1.0000000
N2   N   0.777796023758478   0.388976755548702   0.624813663242880   1.0000000
N2   N   0.444470214730232   0.888962079706036   0.125034998252683   1.0000000
N2   N   0.277847398456895   0.388976755548702   0.125186336757119   1.0000000
N2   N   0.277823066512985   0.555616754578880   0.125084403729483   1.0000000
N2   N   0.611186272329873   0.389034645690772   0.124961578799590   1.0000000
N2   N   0.777875925034590   0.889085183402508   0.124933358219025   1.0000000
N2   N   0.944471485001847   0.388961429373625   0.125080199339338   1.0000000
N2   N   0.111136217763980   0.555605768861295   0.624975223619500   1.0000000
N2   N   0.277842655663420   0.055665701820433   0.624884899759978   1.0000000
N2   N   0.777812446803063   0.555680561307706   0.624864907300431   1.0000000
N2   N   0.611135239592881   0.055645846399749   0.624913132974136   1.0000000
N2   N   0.944518287033405   0.055684331228066   0.624989640906915   1.0000000
N2   N   0.055841044440025   0.111207285684810   0.375000000000000   1.0000000
N2   N   0.556102549528165   0.612293430066467   0.375000000000000   1.0000000
N2   N   0.389521484103184   0.112376301539705   0.375000000000000   1.0000000
N2   N   0.886867708527271   0.609445524279244   0.375000000000000   1.0000000
N2   N   0.722032907911449   0.111207285684810   0.375000000000000   1.0000000
N2   N   0.055550473964049   0.777765641520048   0.875000000000000   1.0000000
N2   N   0.388881834222663   0.777765641520048   0.875000000000000   1.0000000
N2   N   0.222212008677452   0.277755666895379   0.875000000000000   1.0000000
N2   N   0.722212067435489   0.777757468204308   0.875000000000000   1.0000000
N2   N   0.555542831140361   0.277751526679702   0.875000000000000   1.0000000
N2   N   0.888881138815971   0.277764566091216   0.875000000000000   1.0000000
N2   N   0.221932228686500   0.777197790706336   0.375000000000000   1.0000000
N2   N   0.055646726883803   0.277760544643602   0.375000000000000   1.0000000
N2   N   0.389938604842206   0.281009626546771   0.375000000000000   1.0000000
N2   N   0.555486915586701   0.778147497137200   0.375000000000000   1.0000000
N2   N   0.889327248217170   0.778147497137200   0.375000000000000   1.0000000
N2   N   0.722010121470873   0.277476078174372   0.375000000000000   1.0000000
N2   N   0.055547713844696   0.944427372232059   0.875000000000000   1.0000000
N2   N   0.388882584986550   0.944430205500380   0.875000000000000   1.0000000
N2   N   0.222215131875437   0.444428578525382   0.875000000000000   1.0000000
N2   N   0.555544750459491   0.444422834252304   0.875000000000000   1.0000000
N2   N   0.722212328787198   0.944427971647645   0.875000000000000   1.0000000
N2   N   0.888880113316610   0.444428578525382   0.875000000000000   1.0000000
N2   N   0.055388935102801   0.444111203538938   0.375000000000000   1.0000000
N2   N   0.222395360977115   0.944415990086787   0.375000000000000   1.0000000
N2   N   0.555369210185590   0.944828555883480   0.375000000000000   1.0000000
N2   N   0.391104413468019   0.440980609052398   0.375000000000000   1.0000000
N2   N   0.889207885978420   0.944743490350566   0.375000000000000   1.0000000
N2   N   0.716542862251044   0.440980609052398   0.375000000000000   1.0000000
N2   N   0.222213964663288   0.611095825570004   0.875000000000000   1.0000000
N2   N   0.055547305396956   0.111091421448061   0.875000000000000   1.0000000
N2   N   0.555536975710108   0.611088225611744   0.875000000000000   1.0000000
N2   N   0.388878256422195   0.111089846177734   0.875000000000000   1.0000000
N2   N   0.888881339305936   0.611092849435308   0.875000000000000   1.0000000
N2   N   0.054845804437377   0.610420794824307   0.375000000000000   1.0000000
N2   N   0.722210782717763   0.111091421448061   0.875000000000000   1.0000000
N2   N   0.223273425736074   0.111918834559312   0.375000000000000   1.0000000
N2   N   0.389244482418630   0.609445524279244   0.375000000000000   1.0000000
N2   N   0.722857547204966   0.612293430066467   0.375000000000000   1.0000000
N2   N   0.555312075489902   0.111918834559312   0.375000000000000   1.0000000
N2   N   0.388878176796030   0.611092849435308   0.875000000000000   1.0000000
N2   N   0.888956278831928   0.111245890997204   0.375000000000000   1.0000000
N2   N   0.222215785981771   0.777764905296885   0.875000000000000   1.0000000
N2   N   0.055550093941902   0.277764566091216   0.875000000000000   1.0000000
N2   N   0.388875362206006   0.277751526679702   0.875000000000000   1.0000000
N2   N   0.555543786458415   0.777760426303328   0.875000000000000   1.0000000
N2   N   0.888883306511578   0.777760426303328   0.875000000000000   1.0000000
N2   N   0.722210324884598   0.277755666895379   0.875000000000000   1.0000000
N2   N   0.055028554341969   0.777149686695924   0.375000000000000   1.0000000
N2   N   0.388787799020626   0.777149686695924   0.375000000000000   1.0000000
N2   N   0.222132623370156   0.277476078174372   0.375000000000000   1.0000000
N2   N   0.722579046818120   0.778491426969584   0.375000000000000   1.0000000
N2   N   0.557737688371222   0.281009626546771   0.375000000000000   1.0000000
N2   N   0.888780484426463   0.277760544643602   0.375000000000000   1.0000000
N2   N   0.055549254574832   0.444431842482993   0.875000000000000   1.0000000
N2   N   0.222214287180495   0.944430205500380   0.875000000000000   1.0000000
N2   N   0.555546325054034   0.944427372232059   0.875000000000000   1.0000000
N2   N   0.388877633632622   0.444422356906103   0.875000000000000   1.0000000
N2   N   0.888882309527112   0.944427971647645   0.875000000000000   1.0000000
N2   N   0.056126012364553   0.944828555883480   0.375000000000000   1.0000000
N2   N   0.722211389940146   0.444422356906103   0.875000000000000   1.0000000
N2   N   0.388687295776329   0.944415990086787   0.375000000000000   1.0000000
N2   N   0.223327630149776   0.443891750700809   0.375000000000000   1.0000000
N2   N   0.222241657053594   0.610420794824307   0.375000000000000   1.0000000
N2   N   0.722202271038809   0.944743490350566   0.375000000000000   1.0000000
N2   N   0.887230787217697   0.443891750700809   0.375000000000000   1.0000000
N2   N   0.055548527573381   0.611095825570004   0.875000000000000   1.0000000
N2   N   0.222209533655478   0.111088483163306   0.875000000000000   1.0000000
N2   N   0.722217916568300   0.611088225611744   0.875000000000000   1.0000000
N2   N   0.555545616174492   0.111088483163306   0.875000000000000   1.0000000
N2   N   0.888881433951342   0.111096201236027   0.875000000000000   1.0000000
B2   B   0.111608818961227   0.055825364079420   0.375000000000000   1.0000000
B2   B   0.611148703218873   0.555630739771081   0.375000000000000   1.0000000
B2   B   0.443869204132164   0.055667758168241   0.375000000000000   1.0000000
B2   B   0.943543001620650   0.555117512238908   0.375000000000000   1.0000000
B2   B   0.777710362534603   0.055508981481708   0.375000000000000   1.0000000
B2   B   0.111103097032910   0.722216400483614   0.875000000000000   1.0000000
B2   B   0.444448020873326   0.722207744380627   0.875000000000000   1.0000000
B2   B   0.277780017597412   0.222203062390215   0.875000000000000   1.0000000
B2   B   0.777755754886311   0.722190971425185   0.875000000000000   1.0000000
B2   B   0.611089711459475   0.222203062390215   0.875000000000000   1.0000000
B2   B   0.944433466248495   0.222200265830333   0.875000000000000   1.0000000
B2   B   0.277664423499153   0.721715598177918   0.375000000000000   1.0000000
B2   B   0.110674986580365   0.221926328482006   0.375000000000000   1.0000000
B2   B   0.445181967720287   0.223697268773910   0.375000000000000   1.0000000
B2   B   0.611242667225699   0.722646643502341   0.375000000000000   1.0000000
B2   B   0.943553948116971   0.721454248447617   0.375000000000000   1.0000000
B2   B   0.777918008568313   0.221926328482006   0.375000000000000   1.0000000
B2   B   0.111098913066414   0.888872026151998   0.875000000000000   1.0000000
B2   B   0.444439779752256   0.888872026151998   0.875000000000000   1.0000000
B2   B   0.277790915878127   0.388879665215694   0.875000000000000   1.0000000
B2   B   0.611090481662845   0.388887747980880   0.875000000000000   1.0000000
B2   B   0.777758380858923   0.888850095051182   0.875000000000000   1.0000000
B2   B   0.944434818988520   0.388879698538729   0.875000000000000   1.0000000
B2   B   0.111514495925156   0.388751413115093   0.375000000000000   1.0000000
B2   B   0.277566332265407   0.888465997864149   0.375000000000000   1.0000000
B2   B   0.611004776727099   0.889148867567552   0.375000000000000   1.0000000
B2   B   0.944810757507124   0.889148867567552   0.375000000000000   1.0000000
B2   B   0.776108446221881   0.387883012673274   0.375000000000000   1.0000000
B2   B   0.277788426049267   0.555551925095272   0.875000000000000   1.0000000
B2   B   0.111097121765628   0.055525790709426   0.875000000000000   1.0000000
B2   B   0.611102524406893   0.555538382147107   0.875000000000000   1.0000000
B2   B   0.444432190741111   0.055535196078452   0.875000000000000   1.0000000
B2   B   0.944430165712669   0.555551925095272   0.875000000000000   1.0000000
B2   B   0.110937273586009   0.555207880505346   0.375000000000000   1.0000000
B2   B   0.777760688945913   0.055521438882629   0.875000000000000   1.0000000
B2   B   0.278465220702734   0.055667758168241   0.375000000000000   1.0000000
B2   B   0.446326798131538   0.554853704828803   0.375000000000000   1.0000000
B2   B   0.775193573363923   0.554853704828803   0.375000000000000   1.0000000
B2   B   0.610883211784864   0.055825364079420   0.375000000000000   1.0000000
B2   B   0.444459658245965   0.555546333450924   0.875000000000000   1.0000000
B2   B   0.944465285613771   0.055508981481708   0.375000000000000   1.0000000
B2   B   0.277779970117375   0.722216400483614   0.875000000000000   1.0000000
B2   B   0.111104521737451   0.222197954372869   0.875000000000000   1.0000000
B2   B   0.444436505031216   0.222206343395768   0.875000000000000   1.0000000
B2   B   0.611101883205544   0.722190971425185   0.875000000000000   1.0000000
B2   B   0.944426390173966   0.722207744380627   0.875000000000000   1.0000000
B2   B   0.777760099302090   0.222197954372869   0.875000000000000   1.0000000
B2   B   0.110717841345436   0.721715598177918   0.375000000000000   1.0000000
B2   B   0.444566966997312   0.721454248447617   0.375000000000000   1.0000000
B2   B   0.277152940398289   0.222307012340192   0.375000000000000   1.0000000
B2   B   0.778070642943314   0.722646643502341   0.375000000000000   1.0000000
B2   B   0.611820738608575   0.222307012340192   0.375000000000000   1.0000000
B2   B   0.944409301410232   0.222151936153793   0.375000000000000   1.0000000
B2   B   0.111111546216881   0.388879698538729   0.875000000000000   1.0000000
B2   B   0.277771727715424   0.888876788764183   0.875000000000000   1.0000000
B2   B   0.611100063668357   0.888858179710128   0.875000000000000   1.0000000
B2   B   0.444463932984706   0.388887747980880   0.875000000000000   1.0000000
B2   B   0.944424782708442   0.888858179710128   0.875000000000000   1.0000000
B2   B   0.111099996596940   0.888598227085601   0.375000000000000   1.0000000
B2   B   0.777755416004238   0.388879665215694   0.875000000000000   1.0000000
B2   B   0.444164897155333   0.888598227085601   0.375000000000000   1.0000000
B2   B   0.278441233118071   0.387883012673274   0.375000000000000   1.0000000
B2   B   0.278241177284923   0.555117512238908   0.375000000000000   1.0000000
B2   B   0.777836272061917   0.889005877457163   0.375000000000000   1.0000000
B2   B   0.943903583856608   0.388751413115093   0.375000000000000   1.0000000
B2   B   0.111109766293674   0.555552865920684   0.875000000000000   1.0000000
B2   B   0.277769672004012   0.055535196078452   0.875000000000000   1.0000000
B2   B   0.777753341871624   0.555546333450924   0.875000000000000   1.0000000
B2   B   0.611095335610469   0.055525790709426   0.875000000000000   1.0000000
B2   B   0.944427416603380   0.055521438882629   0.875000000000000   1.0000000
B2   B   0.055591064642083   0.111171655986131   0.124999558892119   1.0000000
B2   B   0.555764770922848   0.611325444967970   0.124908170993301   1.0000000
B2   B   0.388965815085843   0.111264963505029   0.125084465587969   1.0000000
B2   B   0.888877558969171   0.611212199258889   0.125056963409659   1.0000000
B2   B   0.722247258010712   0.111171655986131   0.124999558892119   1.0000000
B2   B   0.055565371761312   0.777835461894710   0.624982597940349   1.0000000
B2   B   0.388936756800063   0.777835461894710   0.624982597940349   1.0000000
B2   B   0.222291857480971   0.277883250072796   0.625027703282584   1.0000000
B2   B   0.722306636716607   0.777946606766549   0.625001896350284   1.0000000
B2   B   0.555655867722147   0.278048549444755   0.625234889918733   1.0000000
B2   B   0.888925568726071   0.277850558839976   0.625010975452626   1.0000000
B2   B   0.222251980287976   0.777837293909289   0.125006539027329   1.0000000
B2   B   0.055591656780570   0.277850558839976   0.124989024547374   1.0000000
B2   B   0.389059348389271   0.278048549444755   0.124765110081267   1.0000000
B2   B   0.555658153611787   0.777892607173200   0.125032862749937   1.0000000
B2   B   0.888901120228069   0.777892607173200   0.125032862749937   1.0000000
B2   B   0.722258059258489   0.277883250072796   0.124972296717416   1.0000000
B2   B   0.055583687416170   0.944507631193639   0.624977317712562   1.0000000
B2   B   0.388918949640990   0.944519840401975   0.624954822646054   1.0000000
B2   B   0.222288903629302   0.444541632808643   0.624984165102183   1.0000000
B2   B   0.555738720836372   0.444810775006066   0.624360040128946   1.0000000
B2   B   0.722277591397220   0.944539981829507   0.625001491376757   1.0000000
B2   B   0.888919395846005   0.444541632808643   0.624984165102183   1.0000000
B2   B   0.055594335457155   0.444522004247631   0.125002948586010   1.0000000
B2   B   0.222267557427649   0.944519840401975   0.125045177353946   1.0000000
B2   B   0.555590610444139   0.944507631193639   0.125022682287438   1.0000000
B2   B   0.389072608733127   0.444620915628457   0.124969567260432   1.0000000
B2   B   0.888929057098950   0.944539981829507   0.124998508623243   1.0000000
B2   B   0.722214973561994   0.444620915628457   0.124969567260432   1.0000000
B2   B   0.222267663913084   0.611178347559803   0.624994805498517   1.0000000
B2   B   0.055591064642083   0.111171655986131   0.625000441107881   1.0000000
B2   B   0.555764770922848   0.611325444967970   0.625091829006699   1.0000000
B2   B   0.388965815085843   0.111264963505029   0.624915534412032   1.0000000
B2   B   0.888877558969171   0.611212199258889   0.624943036590341   1.0000000
B2   B   0.055577350313383   0.611178347559803   0.125005194501483   1.0000000
B2   B   0.722247258010712   0.111171655986131   0.625000441107881   1.0000000
B2   B   0.222292756457726   0.111202462428801   0.125043172124189   1.0000000
B2   B   0.389001306956376   0.611212199258889   0.125056963409659   1.0000000
B2   B   0.722227340711778   0.611325444967970   0.124908170993301   1.0000000
B2   B   0.555576372637740   0.111202462428801   0.125043172124189   1.0000000
B2   B   0.389001306956376   0.611212199258889   0.624943036590341   1.0000000
B2   B   0.888925312054940   0.111183957443231   0.124982602076241   1.0000000
B2   B   0.222251980287976   0.777837293909289   0.624993460972670   1.0000000
B2   B   0.055591656780570   0.277850558839976   0.625010975452626   1.0000000
B2   B   0.389059348389271   0.278048549444755   0.625234889918733   1.0000000
B2   B   0.555658153611787   0.777892607173200   0.624967137250062   1.0000000
B2   B   0.888901120228069   0.777892607173200   0.624967137250062   1.0000000
B2   B   0.722258059258489   0.277883250072796   0.625027703282584   1.0000000
B2   B   0.055565371761312   0.777835461894710   0.125017402059652   1.0000000
B2   B   0.388936756800063   0.777835461894710   0.125017402059652   1.0000000
B2   B   0.222291857480971   0.277883250072796   0.124972296717416   1.0000000
B2   B   0.722306636716607   0.777946606766549   0.124998103649716   1.0000000
B2   B   0.555655867722147   0.278048549444755   0.124765110081267   1.0000000
B2   B   0.888925568726071   0.277850558839976   0.124989024547374   1.0000000
B2   B   0.055594335457155   0.444522004247631   0.624997051413990   1.0000000
B2   B   0.222267557427649   0.944519840401975   0.624954822646054   1.0000000
B2   B   0.555590610444139   0.944507631193639   0.624977317712562   1.0000000
B2   B   0.389072608733127   0.444620915628457   0.625030432739567   1.0000000
B2   B   0.888929057098950   0.944539981829507   0.625001491376757   1.0000000
B2   B   0.055583687416170   0.944507631193639   0.125022682287438   1.0000000
B2   B   0.722214973561994   0.444620915628457   0.625030432739567   1.0000000
B2   B   0.388918949640990   0.944519840401975   0.125045177353946   1.0000000
B2   B   0.222288903629302   0.444541632808643   0.125015834897818   1.0000000
B2   B   0.222267663913084   0.611178347559803   0.125005194501483   1.0000000
B2   B   0.555738720836372   0.444810775006066   0.125639959871054   1.0000000
B2   B   0.722277591397220   0.944539981829507   0.124998508623243   1.0000000
B2   B   0.888919395846005   0.444541632808643   0.125015834897818   1.0000000
B2   B   0.055577350313383   0.611178347559803   0.624994805498517   1.0000000
B2   B   0.222292756457726   0.111202462428801   0.624956827875810   1.0000000
B2   B   0.722227340711778   0.611325444967970   0.625091829006699   1.0000000
B2   B   0.555576372637740   0.111202462428801   0.624956827875810   1.0000000
B2   B   0.888925312054940   0.111183957443231   0.625017397923759   1.0000000


