data_1
_audit_creation_method   'vasp2cif'
_cell_length_a    17.52789999999977
_cell_length_b    17.52789999999977
_cell_length_c    15.0
_cell_angle_alpha    90.0
_cell_angle_beta    90.0
_cell_angle_gamma    119.99999999999916

_symmetry_space_group_name_H-M    'P 1'
loop_
_atom_site_label
_atom_site_type_symbol
_atom_site_fract_x
_atom_site_fract_y
_atom_site_fract_z
_atom_site_occupancy
Sb2   Sb   0.397950679942935   0.484426061321322   0.995863473554179   1.0000000
B2   B   0.910045994427609   0.956278119895272   0.109141318155595   1.0000000
B2   B   0.909246233575472   0.098533385872608   0.110097801404657   1.0000000
B2   B   0.908695647469154   0.240975270728246   0.109125684300685   1.0000000
B2   B   0.908053121802107   0.383432460998853   0.109989746655780   1.0000000
B2   B   0.907099665174358   0.525927221525879   0.110754949239861   1.0000000
B2   B   0.904744417111868   0.668446719578522   0.108347631891852   1.0000000
B2   B   0.908478378302895   0.812056807525316   0.107285458716196   1.0000000
B2   B   0.050849779271391   0.953487825507601   0.107714052447341   1.0000000
B2   B   0.051395619366114   0.096916978026977   0.113571595459863   1.0000000
B2   B   0.051648481106131   0.240421439522738   0.114074781797947   1.0000000
B2   B   0.051391662521511   0.383456688023259   0.114823021575999   1.0000000
B2   B   0.050355333260536   0.525946262497112   0.116411938098785   1.0000000
B2   B   0.049417130807811   0.667991218012536   0.111174867673095   1.0000000
B2   B   0.050091438029657   0.810303680376956   0.105645493338676   1.0000000
B2   B   0.193003827083475   0.952156047284935   0.107953118523308   1.0000000
B2   B   0.192736281983813   0.094434336911318   0.115962841812409   1.0000000
B2   B   0.192892441453043   0.237546293195726   0.116505768085096   1.0000000
B2   B   0.194523905925167   0.382875622956766   0.107083841940762   1.0000000
B2   B   0.193410864173133   0.526127466841685   0.118875100505957   1.0000000
B2   B   0.193718166032643   0.668212486632114   0.119321117154393   1.0000000
B2   B   0.193252958684175   0.810009656063159   0.109876660463282   1.0000000
B2   B   0.336157720366978   0.952095890550993   0.108104604985864   1.0000000
B2   B   0.335463822287360   0.093433449131712   0.114597395785798   1.0000000
B2   B   0.334540035254840   0.234211758995439   0.121456928510945   1.0000000
B2   B   0.332496945465004   0.369289312446080   0.086808581988544   1.0000000
B2   B   0.333690876804078   0.532708335520472   0.088441286469502   1.0000000
B2   B   0.338480121149333   0.669241742060341   0.124109036048238   1.0000000
B2   B   0.336894853317950   0.810583839530940   0.116947058713121   1.0000000
B2   B   0.479703529552849   0.953114787630825   0.110067706867090   1.0000000
B2   B   0.478958216906151   0.094673197830519   0.108235308267930   1.0000000
B2   B   0.477903582962917   0.235350629871793   0.118665781171183   1.0000000
B2   B   0.476829982893138   0.376174918140549   0.112142814210052   1.0000000
B2   B   0.484976670901119   0.670330052490627   0.114737260987158   1.0000000
B2   B   0.480897820021617   0.811561102832604   0.120787699821818   1.0000000
B2   B   0.623347334615815   0.955228242283425   0.112847503336067   1.0000000
B2   B   0.622487854880982   0.096727937965093   0.105352283120404   1.0000000
B2   B   0.621780834829415   0.238428188311913   0.109365862066821   1.0000000
B2   B   0.619779880219724   0.378630668550173   0.119359820272711   1.0000000
B2   B   0.537420428367428   0.486437577243012   0.108069842562096   1.0000000
B2   B   0.636701412807318   0.677105329689580   0.112871985449757   1.0000000
B2   B   0.625047997946658   0.814306230411383   0.120273693560849   1.0000000
B2   B   0.766968677718462   0.956932726945457   0.112753520775365   1.0000000
B2   B   0.765985180052264   0.098361396524022   0.107245495702330   1.0000000
B2   B   0.765329359504557   0.240386340653941   0.105508037123989   1.0000000
B2   B   0.764649180665673   0.382699025851182   0.110623603731169   1.0000000
B2   B   0.764926127191311   0.526376927636619   0.115153276637599   1.0000000
B2   B   0.760714808096002   0.671748461077116   0.111310376095623   1.0000000
B2   B   0.769356017146572   0.816971617180721   0.114711598333631   1.0000000
N2   N   0.955765116768378   0.906808600849598   0.106795674898660   1.0000000
N2   N   0.956768163923580   0.050719329355118   0.110168570753499   1.0000000
N2   N   0.956650256832349   0.193584728564000   0.111081522084981   1.0000000
N2   N   0.956178583049863   0.336164917518348   0.111120249088924   1.0000000
N2   N   0.955002127270062   0.478632273935768   0.111962555762090   1.0000000
N2   N   0.953005749571100   0.620914945842910   0.109726856581565   1.0000000
N2   N   0.954117490946356   0.763092737773283   0.105744914609675   1.0000000
N2   N   0.097730286128158   0.905208352102887   0.105718849748105   1.0000000
N2   N   0.098053648234657   0.048293849934322   0.112255733550859   1.0000000
N2   N   0.098495958765254   0.191908164367253   0.117102418218294   1.0000000
N2   N   0.099811543417992   0.336017934426363   0.113720626970401   1.0000000
N2   N   0.098405914498321   0.478545969497417   0.119073819415359   1.0000000
N2   N   0.097861713354797   0.620898562684872   0.116426922690856   1.0000000
N2   N   0.097603315129848   0.762768174311366   0.107913659795183   1.0000000
N2   N   0.240871800370523   0.904846102195746   0.107172511164402   1.0000000
N2   N   0.240449353891473   0.046973326863514   0.112820348177027   1.0000000
N2   N   0.239942611741555   0.189264560512992   0.120715168710905   1.0000000
N2   N   0.240864154801953   0.332717450588787   0.104865599224321   1.0000000
N2   N   0.241554042389049   0.479145345401155   0.107056371068666   1.0000000
N2   N   0.242530623169576   0.621186526105285   0.123226230760440   1.0000000
N2   N   0.241459885674046   0.763005303448797   0.115882029622250   1.0000000
N2   N   0.384434410492160   0.905208169336928   0.110420374572922   1.0000000
N2   N   0.383779432425419   0.047033771174406   0.108789513017273   1.0000000
N2   N   0.383087638630800   0.188122452974439   0.121563872494229   1.0000000
N2   N   0.382227310804917   0.328693666295556   0.112732278162037   1.0000000
N2   N   0.388286183949717   0.622307853554761   0.116643223325418   1.0000000
N2   N   0.385671566327991   0.763846508308152   0.123509669733326   1.0000000
N2   N   0.528108241490155   0.906290823305525   0.114868807669527   1.0000000
N2   N   0.527236916759062   0.048124291589540   0.105795946490377   1.0000000
N2   N   0.526620558353980   0.189891925124570   0.111539782493612   1.0000000
N2   N   0.525348343141353   0.330953162176164   0.120872995632372   1.0000000
N2   N   0.500749428866113   0.539718828482800   0.089713170089254   1.0000000
N2   N   0.541830021662509   0.628698567172221   0.105484524482855   1.0000000
N2   N   0.530085896384130   0.764482868126322   0.121841034642594   1.0000000
N2   N   0.671831984654530   0.908602744301765   0.116563339367488   1.0000000
N2   N   0.670712839117013   0.050002638738913   0.107209784072971   1.0000000
N2   N   0.670029064215054   0.192084460426531   0.104636882037309   1.0000000
N2   N   0.669278046254065   0.334240335808330   0.113195738196949   1.0000000
N2   N   0.669207317630986   0.476049402345715   0.122738993643188   1.0000000
N2   N   0.628292220240234   0.522382221734232   0.124328748473400   1.0000000
N2   N   0.675149912269067   0.768885058575219   0.120298425642679   1.0000000
N2   N   0.815341881355360   0.910102329028090   0.111944518643115   1.0000000
N2   N   0.814091069299604   0.051373257554376   0.109333062275552   1.0000000
N2   N   0.813465268776978   0.193434249592292   0.105901391486104   1.0000000
N2   N   0.812623938420456   0.335818797493184   0.107314108435099   1.0000000
N2   N   0.811409370293484   0.478464358131961   0.111606309520899   1.0000000
N2   N   0.806435429455805   0.621388558504383   0.110796583545054   1.0000000
N2   N   0.812703051280336   0.765431806319409   0.110805793774619   1.0000000


