data_1
_audit_creation_method   'vasp2cif'
_cell_length_a    17.52789999999977
_cell_length_b    17.52789999999977
_cell_length_c    15.0
_cell_angle_alpha    90.0
_cell_angle_beta    90.0
_cell_angle_gamma    119.99999999999916

_symmetry_space_group_name_H-M    'P 1'
loop_
_atom_site_label
_atom_site_type_symbol
_atom_site_fract_x
_atom_site_fract_y
_atom_site_fract_z
_atom_site_occupancy
B2   B   0.904589893101699   0.953206655102291   0.113758477996456   1.0000000
B2   B   0.904414531219753   0.095887987044854   0.113102159920407   1.0000000
B2   B   0.904239377624941   0.238617266161870   0.111808342600975   1.0000000
B2   B   0.903880816809049   0.381309135637316   0.111132710938407   1.0000000
B2   B   0.902736615730547   0.523885004676179   0.111944568191401   1.0000000
B2   B   0.903622290186180   0.666755496168988   0.113462155985476   1.0000000
B2   B   0.904181629739075   0.809985203031075   0.112882244102824   1.0000000
B2   B   0.046816668442168   0.952353704127244   0.111879553149970   1.0000000
B2   B   0.046999928070418   0.095392269060472   0.113838442988237   1.0000000
B2   B   0.047065535071435   0.238489348808952   0.114684646404362   1.0000000
B2   B   0.046836302817077   0.381369600244325   0.113907738565932   1.0000000
B2   B   0.046187424441276   0.523924124964566   0.112936224515291   1.0000000
B2   B   0.046256276136412   0.666444497650867   0.111922143090791   1.0000000
B2   B   0.046404366844005   0.809194430057785   0.111142323595020   1.0000000
B2   B   0.188995493546065   0.951366682309471   0.110307438381128   1.0000000
B2   B   0.189475305906798   0.094534047160953   0.112247489956781   1.0000000
B2   B   0.189363405597437   0.237479987289627   0.115536307116715   1.0000000
B2   B   0.189645902957183   0.381122296197608   0.114038092926187   1.0000000
B2   B   0.189437080210002   0.524015289614456   0.113533356140785   1.0000000
B2   B   0.189297303280263   0.666453317066243   0.112644592239068   1.0000000
B2   B   0.189078339871157   0.808851249406058   0.111075726706703   1.0000000
B2   B   0.331801555182282   0.951002438621683   0.110386723797672   1.0000000
B2   B   0.331438548699355   0.092995926314331   0.110549633965415   1.0000000
B2   B   0.332187214908518   0.236122118554838   0.113408515642419   1.0000000
B2   B   0.331061923758417   0.379454233200923   0.107639516684661   1.0000000
B2   B   0.332082738353903   0.524207369516492   0.103023938896351   1.0000000
B2   B   0.332521574904257   0.666683855044707   0.109979433414052   1.0000000
B2   B   0.332114313718889   0.808924475514474   0.112350842561631   1.0000000
B2   B   0.475027458153395   0.951447921377233   0.111871311804207   1.0000000
B2   B   0.474647201933007   0.092805029309624   0.109300965277572   1.0000000
B2   B   0.473875413550276   0.232928637913508   0.112708133008806   1.0000000
B2   B   0.474066668461882   0.370971186297013   0.125256142974228   1.0000000
B2   B   0.475974527672716   0.668674218085518   0.100802269562720   1.0000000
B2   B   0.475408412590168   0.809729771586310   0.113440653982598   1.0000000
B2   B   0.618423945712501   0.952563967232890   0.113270293829383   1.0000000
B2   B   0.618141937868506   0.094515423839632   0.109900471349331   1.0000000
B2   B   0.617910319754520   0.236289175250477   0.109720834549140   1.0000000
B2   B   0.617042272407090   0.376845771037156   0.116677719093449   1.0000000
B2   B   0.621787800998506   0.669557358738993   0.102555788377479   1.0000000
B2   B   0.619040326667566   0.810625629450608   0.112874499374604   1.0000000
B2   B   0.761722016312263   0.953266255069726   0.114084875586784   1.0000000
B2   B   0.761412889498743   0.095627303990603   0.111362516570769   1.0000000
B2   B   0.761232069864544   0.238128621085720   0.109483962823234   1.0000000
B2   B   0.760981419867793   0.380824432581183   0.110875337518167   1.0000000
B2   B   0.759970833259312   0.524992882321257   0.114734298342865   1.0000000
B2   B   0.760878495324613   0.667191504420131   0.113733431438669   1.0000000
B2   B   0.762413395006922   0.811155783137465   0.114649638200886   1.0000000
As2   As   0.483091664024498   0.518928623412057   0.036228715208193   1.0000000
N2   N   0.951755148143975   0.905109290779453   0.112768654133631   1.0000000
N2   N   0.952105885523908   0.048313290941724   0.113441189861341   1.0000000
N2   N   0.952034106417175   0.191166455489594   0.113107094899051   1.0000000
N2   N   0.951629171443052   0.333882682280322   0.112179380321441   1.0000000
N2   N   0.950542396317517   0.476404570155682   0.111781536348303   1.0000000
N2   N   0.950567301939580   0.618783333517377   0.112316560603519   1.0000000
N2   N   0.951069097570832   0.761676728916762   0.112231775349626   1.0000000
N2   N   0.094022895387184   0.904373692541314   0.110664131070904   1.0000000
N2   N   0.094662574381264   0.047758334643170   0.112579466235217   1.0000000
N2   N   0.094798633842621   0.190722485736307   0.115390052851600   1.0000000
N2   N   0.094830622010653   0.333821756591412   0.114942596058161   1.0000000
N2   N   0.094233337165925   0.476482312192008   0.114151057884839   1.0000000
N2   N   0.093927484031340   0.618919936571048   0.112599862124663   1.0000000
N2   N   0.093816628847681   0.761459081217506   0.111085847967728   1.0000000
N2   N   0.236732585729858   0.903989608185057   0.110248292039117   1.0000000
N2   N   0.236809629083309   0.046779167906607   0.110626591770652   1.0000000
N2   N   0.237847669562642   0.190447191770189   0.113584742373145   1.0000000
N2   N   0.237399284695306   0.332819524455400   0.114899440957780   1.0000000
N2   N   0.237666153211788   0.476411559880880   0.112501801959328   1.0000000
N2   N   0.237368315608959   0.618991004823227   0.112503567328758   1.0000000
N2   N   0.236910475677072   0.761451178209389   0.112023421103946   1.0000000
N2   N   0.379816684782301   0.903988764006546   0.111668131307614   1.0000000
N2   N   0.379599945514272   0.046305837331898   0.109596506059452   1.0000000
N2   N   0.379570169957434   0.188748993008670   0.112119062199013   1.0000000
N2   N   0.382206637872886   0.333963418345449   0.115371290039920   1.0000000
N2   N   0.376597659707474   0.472809376765227   0.090292639935724   1.0000000
N2   N   0.380815638353656   0.619085737100740   0.103050120986994   1.0000000
N2   N   0.380153844969430   0.761579491399883   0.112467931556380   1.0000000
N2   N   0.523097765290189   0.904593850356268   0.113797284375768   1.0000000
N2   N   0.522846368216558   0.046547143247500   0.109916337301797   1.0000000
N2   N   0.522648866031380   0.188149175583072   0.109439398975054   1.0000000
N2   N   0.522438873281339   0.328691796640123   0.118913354136653   1.0000000
N2   N   0.605614255935962   0.505702332317773   0.127343990075485   1.0000000
N2   N   0.527809659808495   0.625926155910625   0.083773298525332   1.0000000
N2   N   0.523480709006360   0.762491441514747   0.111902987255395   1.0000000
N2   N   0.666365736275240   0.905399727803823   0.114214052812525   1.0000000
N2   N   0.666083689926662   0.047687869967087   0.111365420168581   1.0000000
N2   N   0.665826963798959   0.189974634181447   0.108856928644111   1.0000000
N2   N   0.665390151890991   0.332239130637639   0.111526483398157   1.0000000
N2   N   0.660382359378177   0.473757762408175   0.118121741605049   1.0000000
N2   N   0.667543495926836   0.621846371446341   0.109176577770792   1.0000000
N2   N   0.667421040394198   0.763693947964313   0.112775015789488   1.0000000
N2   N   0.809561582065691   0.905929970805221   0.114963262060134   1.0000000
N2   N   0.809216063022545   0.048358991094358   0.112707548913924   1.0000000
N2   N   0.808950001053824   0.190954569519558   0.110299865678805   1.0000000
N2   N   0.808406770331618   0.333632041283092   0.109746930969781   1.0000000
N2   N   0.806131687859390   0.476093350534921   0.112028624081527   1.0000000
N2   N   0.807583235634245   0.618736567866101   0.115569748697627   1.0000000
N2   N   0.808964587609640   0.762523916947489   0.113649050410019   1.0000000


