data_1
_audit_creation_method   'vasp2cif'
_cell_length_a    14.93631414619966
_cell_length_b    14.936314146199727
_cell_length_c    13.341276283792837
_cell_angle_alpha    90.0
_cell_angle_beta    90.0
_cell_angle_gamma    119.99999999999984

_symmetry_space_group_name_H-M    'P 1'
loop_
_atom_site_label
_atom_site_type_symbol
_atom_site_fract_x
_atom_site_fract_y
_atom_site_fract_z
_atom_site_occupancy
Ga2   Ga   0.444444444444443   0.388888888888886   0.375000000000000   1.0000000
N2   N   0.111090667766467   0.055536867068903   0.124744547427442   1.0000000
N2   N   0.611137042979125   0.555598980880610   0.124257640248646   1.0000000
N2   N   0.444446199302437   0.055536867068903   0.124744547427442   1.0000000
N2   N   0.944447544700624   0.555562262624993   0.125026835590067   1.0000000
N2   N   0.777777777777779   0.055555555555557   0.125009104140012   1.0000000
N2   N   0.111111111111114   0.722222222222221   0.625022837443291   1.0000000
N2   N   0.444446199302437   0.722242665566878   0.625255452572585   1.0000000
N2   N   0.277734352452712   0.222196290354210   0.625742359751348   1.0000000
N2   N   0.777796466264433   0.722242665566878   0.625255452572585   1.0000000
N2   N   0.611121024358192   0.222212308975152   0.625413034566874   1.0000000
N2   N   0.944432450742810   0.222220761185739   0.625000498097132   1.0000000
N2   N   0.277771070708333   0.722218615408953   0.125026835590067   1.0000000
N2   N   0.111091284616980   0.222212308975152   0.124586965433136   1.0000000
N2   N   0.444461937901494   0.222196290354210   0.124257640248646   1.0000000
N2   N   0.611121024358192   0.722242048716386   0.124586965433136   1.0000000
N2   N   0.944447544700624   0.722218615408953   0.125026835590067   1.0000000
N2   N   0.777788310442974   0.222220761185739   0.124999501902881   1.0000000
N2   N   0.111114717924365   0.888885788632704   0.624973164409949   1.0000000
N2   N   0.444453006522128   0.888893169927728   0.624956351617854   1.0000000
N2   N   0.277734352452712   0.388871395431835   0.625742359751348   1.0000000
N2   N   0.611137042979125   0.388871395431835   0.625742359751348   1.0000000
N2   N   0.777788310442974   0.888900882590518   0.625000498097132   1.0000000
N2   N   0.944440163405600   0.388880326811200   0.624956351617854   1.0000000
N2   N   0.111090667766467   0.388887134030891   0.124744547427442   1.0000000
N2   N   0.277771070708333   0.888885788632704   0.125026835590067   1.0000000
N2   N   0.611112572147631   0.888900882590518   0.124999501902881   1.0000000
N2   N   0.444444444444443   0.388888888888886   0.127149234647904   1.0000000
N2   N   0.944440163405600   0.888893169927728   0.125043648382154   1.0000000
N2   N   0.777796466264433   0.388887134030891   0.124744547427442   1.0000000
N2   N   0.277770486672865   0.555562846660454   0.625344902167873   1.0000000
N2   N   0.111090667766467   0.055536867068903   0.625255452572585   1.0000000
N2   N   0.611137042979125   0.555598980880610   0.625742359751348   1.0000000
N2   N   0.444446199302437   0.055536867068903   0.625255452572585   1.0000000
N2   N   0.944447544700624   0.555562262624993   0.624973164409949   1.0000000
N2   N   0.111114717924365   0.555562262624993   0.125026835590067   1.0000000
N2   N   0.777777777777779   0.055555555555557   0.624990895859960   1.0000000
N2   N   0.277770486672865   0.055540973345739   0.124655097832143   1.0000000
N2   N   0.444461937901494   0.555598980880610   0.124257640248646   1.0000000
N2   N   0.777792359987605   0.555562846660454   0.124655097832143   1.0000000
N2   N   0.611112572147631   0.055545022890380   0.124999501902881   1.0000000
N2   N   0.444461937901494   0.555598980880610   0.625742359751348   1.0000000
N2   N   0.944432450742810   0.055545022890380   0.124999501902881   1.0000000
N2   N   0.277771070708333   0.722218615408953   0.624973164409949   1.0000000
N2   N   0.111091284616980   0.222212308975152   0.625413034566874   1.0000000
N2   N   0.444461937901494   0.222196290354210   0.625742359751348   1.0000000
N2   N   0.611121024358192   0.722242048716386   0.625413034566874   1.0000000
N2   N   0.944447544700624   0.722218615408953   0.624973164409949   1.0000000
N2   N   0.777788310442974   0.222220761185739   0.625000498097132   1.0000000
N2   N   0.111111111111114   0.722222222222221   0.124977162556695   1.0000000
N2   N   0.444446199302437   0.722242665566878   0.124744547427442   1.0000000
N2   N   0.277734352452712   0.222196290354210   0.124257640248646   1.0000000
N2   N   0.777796466264433   0.722242665566878   0.124744547427442   1.0000000
N2   N   0.611121024358192   0.222212308975152   0.124586965433136   1.0000000
N2   N   0.944432450742810   0.222220761185739   0.124999501902881   1.0000000
N2   N   0.111090667766467   0.388887134030891   0.625255452572585   1.0000000
N2   N   0.277771070708333   0.888885788632704   0.624973164409949   1.0000000
N2   N   0.611112572147631   0.888900882590518   0.625000498097132   1.0000000
N2   N   0.444444444444443   0.388888888888886   0.622850765352081   1.0000000
N2   N   0.944440163405600   0.888893169927728   0.624956351617854   1.0000000
N2   N   0.111114717924365   0.888885788632704   0.125026835590067   1.0000000
N2   N   0.777796466264433   0.388887134030891   0.625255452572585   1.0000000
N2   N   0.444453006522128   0.888893169927728   0.125043648382154   1.0000000
N2   N   0.277734352452712   0.388871395431835   0.124257640248646   1.0000000
N2   N   0.277770486672865   0.555562846660454   0.124655097832143   1.0000000
N2   N   0.611137042979125   0.388871395431835   0.124257640248646   1.0000000
N2   N   0.777788310442974   0.888900882590518   0.124999501902881   1.0000000
N2   N   0.944440163405600   0.388880326811200   0.125043648382154   1.0000000
N2   N   0.111114717924365   0.555562262624993   0.624973164409949   1.0000000
N2   N   0.277770486672865   0.055540973345739   0.625344902167873   1.0000000
N2   N   0.777792359987605   0.555562846660454   0.625344902167873   1.0000000
N2   N   0.611112572147631   0.055545022890380   0.625000498097132   1.0000000
N2   N   0.944432450742810   0.055545022890380   0.625000498097132   1.0000000
N2   N   0.054445976995928   0.110369490291380   0.375000000000000   1.0000000
N2   N   0.556114819503702   0.612229639007404   0.375000000000000   1.0000000
N2   N   0.387725724752919   0.104632611156522   0.375000000000000   1.0000000
N2   N   0.891138936312188   0.612236134822758   0.375000000000000   1.0000000
N2   N   0.722419577900792   0.110913755432542   0.375000000000000   1.0000000
N2   N   0.055557893760692   0.777775439572628   0.875000000000000   1.0000000
N2   N   0.388893516050098   0.777779310772130   0.875000000000000   1.0000000
N2   N   0.222224063994890   0.277778698664127   0.875000000000000   1.0000000
N2   N   0.722225295745796   0.777772868976074   0.875000000000000   1.0000000
N2   N   0.555554634669214   0.277778698664127   0.875000000000000   1.0000000
N2   N   0.888887836578456   0.277775673156946   0.875000000000000   1.0000000
N2   N   0.221787193626639   0.777560263479996   0.375000000000000   1.0000000
N2   N   0.054445976995928   0.277409820037875   0.375000000000000   1.0000000
N2   N   0.377859384464052   0.255718768928137   0.375000000000000   1.0000000
N2   N   0.555923513295423   0.778887356337390   0.375000000000000   1.0000000
N2   N   0.890703079420254   0.779243441166487   0.375000000000000   1.0000000
N2   N   0.722963843041955   0.277409820037875   0.375000000000000   1.0000000
N2   N   0.055554022561199   0.944447538611279   0.875000000000000   1.0000000
N2   N   0.388893516050098   0.944447538611279   0.875000000000000   1.0000000
N2   N   0.222213699936506   0.444446158411897   0.875000000000000   1.0000000
N2   N   0.555541529798201   0.444437431565765   0.875000000000000   1.0000000
N2   N   0.722224060221014   0.944448120442039   0.875000000000000   1.0000000
N2   N   0.888885794722050   0.444439817283230   0.875000000000000   1.0000000
N2   N   0.054089892166832   0.444792971587076   0.375000000000000   1.0000000
N2   N   0.221097198510575   0.942194397021141   0.375000000000000   1.0000000
N2   N   0.555847775177357   0.944590554255338   0.375000000000000   1.0000000
N2   N   0.377859384464052   0.455473948869276   0.375000000000000   1.0000000
N2   N   0.888742779077991   0.944590554255338   0.375000000000000   1.0000000
N2   N   0.728700722176795   0.445607608580409   0.375000000000000   1.0000000
N2   N   0.222217056784296   0.611116276549051   0.875000000000000   1.0000000
N2   N   0.055560464357263   0.111108037587545   0.875000000000000   1.0000000
N2   N   0.555554634669214   0.611109269338417   0.875000000000000   1.0000000
N2   N   0.388887174921432   0.111100874857961   0.875000000000000   1.0000000
N2   N   0.888899219764765   0.611116276549051   0.875000000000000   1.0000000
N2   N   0.055773069853348   0.611546139706692   0.375000000000000   1.0000000
N2   N   0.722224060221014   0.111109273112316   0.875000000000000   1.0000000
N2   N   0.216906886403585   0.104632611156522   0.375000000000000   1.0000000
N2   N   0.387725724752919   0.616426446929744   0.375000000000000   1.0000000
N2   N   0.728700722176795   0.616426446929744   0.375000000000000   1.0000000
N2   N   0.555923513295423   0.110369490291380   0.375000000000000   1.0000000
N2   N   0.388887174921432   0.611119633396841   0.875000000000000   1.0000000
N2   N   0.888494177531729   0.110913755432542   0.375000000000000   1.0000000
N2   N   0.222217545811953   0.777775439572628   0.875000000000000   1.0000000
N2   N   0.055560464357263   0.277785760103049   0.875000000000000   1.0000000
N2   N   0.388895901767564   0.277791803535149   0.875000000000000   1.0000000
N2   N   0.555547573230261   0.777772868976074   0.875000000000000   1.0000000
N2   N   0.888885794722050   0.777779310772130   0.875000000000000   1.0000000
N2   N   0.722225295745796   0.277785760103049   0.875000000000000   1.0000000
N2   N   0.055773069853348   0.777560263479996   0.375000000000000   1.0000000
N2   N   0.388540361746252   0.779243441166487   0.375000000000000   1.0000000
N2   N   0.221103694325939   0.277218513829633   0.375000000000000   1.0000000
N2   N   0.722963843041955   0.778887356337390   0.375000000000000   1.0000000
N2   N   0.556114819503702   0.277218513829633   0.375000000000000   1.0000000
N2   N   0.888742779077991   0.277485558155974   0.375000000000000   1.0000000
N2   N   0.055554022561199   0.444439817283230   0.875000000000000   1.0000000
N2   N   0.222217056784296   0.944434113568564   0.875000000000000   1.0000000
N2   N   0.555557660176403   0.944445496754872   0.875000000000000   1.0000000
N2   N   0.388895901767564   0.444437431565765   0.875000000000000   1.0000000
N2   N   0.888887836578456   0.944445496754872   0.875000000000000   1.0000000
N2   N   0.054089892166832   0.942630253913075   0.375000000000000   1.0000000
N2   N   0.722232458475386   0.444446158411897   0.875000000000000   1.0000000
N2   N   0.388540361746252   0.942630253913075   0.375000000000000   1.0000000
N2   N   0.216906886403585   0.445607608580409   0.375000000000000   1.0000000
N2   N   0.221097198510575   0.612236134822758   0.375000000000000   1.0000000
N2   N   0.577614564405224   0.455473948869276   0.375000000000000   1.0000000
N2   N   0.722419577900792   0.944839155801599   0.375000000000000   1.0000000
N2   N   0.890703079420254   0.444792971587076   0.375000000000000   1.0000000
N2   N   0.055557893760692   0.611115787521389   0.875000000000000   1.0000000
N2   N   0.222213699936506   0.111100874857961   0.875000000000000   1.0000000
N2   N   0.722232458475386   0.611119633396841   0.875000000000000   1.0000000
N2   N   0.555547573230261   0.111108037587545   0.875000000000000   1.0000000
N2   N   0.888885212891290   0.111109273112316   0.875000000000000   1.0000000
B2   B   0.107666012735731   0.052370130670021   0.375000000000000   1.0000000
B2   B   0.619221016154263   0.562434781556819   0.375000000000000   1.0000000
B2   B   0.444704117934279   0.052370130670021   0.375000000000000   1.0000000
B2   B   0.945398821825980   0.555877713599775   0.375000000000000   1.0000000
B2   B   0.777777777777779   0.055555555555557   0.375000000000000   1.0000000
B2   B   0.111111111111114   0.722222222222221   0.875000000000000   1.0000000
B2   B   0.444439334892441   0.722227353342545   0.875000000000000   1.0000000
B2   B   0.277725824422430   0.222239245441043   0.875000000000000   1.0000000
B2   B   0.777788018450113   0.722227353342545   0.875000000000000   1.0000000
B2   B   0.611082513628394   0.222250819704946   0.875000000000000   1.0000000
B2   B   0.944409736185332   0.222253931142906   0.875000000000000   1.0000000
B2   B   0.277455619733563   0.722854441559566   0.375000000000000   1.0000000
B2   B   0.110102540338720   0.221717936836022   0.375000000000000   1.0000000
B2   B   0.443213765402606   0.214112317179079   0.375000000000000   1.0000000
B2   B   0.611615396497326   0.723230792994614   0.375000000000000   1.0000000
B2   B   0.945398821825980   0.722854441559566   0.375000000000000   1.0000000
B2   B   0.777977876018336   0.221777699473520   0.375000000000000   1.0000000
B2   B   0.111174142874749   0.888912902369357   0.875000000000000   1.0000000
B2   B   0.444507047266339   0.888920190299833   0.875000000000000   1.0000000
B2   B   0.277725824422430   0.388819912314736   0.875000000000000   1.0000000
B2   B   0.611094087892297   0.388819912314736   0.875000000000000   1.0000000
B2   B   0.777844194957550   0.888923597147997   0.875000000000000   1.0000000
B2   B   0.944413143033496   0.388826286066989   0.875000000000000   1.0000000
B2   B   0.107666012735731   0.388629215399050   0.375000000000000   1.0000000
B2   B   0.277455619733563   0.887934511507348   0.375000000000000   1.0000000
B2   B   0.611555633859795   0.889533509878137   0.375000000000000   1.0000000
B2   B   0.944234910118345   0.889098423214984   0.375000000000000   1.0000000
B2   B   0.780963202663295   0.388629215399050   0.375000000000000   1.0000000
B2   B   0.277736485484532   0.555596847848768   0.875000000000000   1.0000000
B2   B   0.111105979990796   0.055545314883237   0.875000000000000   1.0000000
B2   B   0.611094087892297   0.555607508910903   0.875000000000000   1.0000000
B2   B   0.444439334892441   0.055545314883237   0.875000000000000   1.0000000
B2   B   0.944420430963972   0.555594573838733   0.875000000000000   1.0000000
B2   B   0.110478891773779   0.555877713599775   0.375000000000000   1.0000000
B2   B   0.777777777777779   0.055555555555557   0.875000000000000   1.0000000
B2   B   0.276096452593000   0.052192905185996   0.375000000000000   1.0000000
B2   B   0.443213765402606   0.562434781556819   0.375000000000000   1.0000000
B2   B   0.781140428147335   0.557236880740319   0.375000000000000   1.0000000
B2   B   0.611555633859795   0.055355457315019   0.375000000000000   1.0000000
B2   B   0.444513421018593   0.555607508910903   0.875000000000000   1.0000000
B2   B   0.943799823455191   0.055355457315019   0.375000000000000   1.0000000
B2   B   0.277738759494573   0.722159190458579   0.875000000000000   1.0000000
B2   B   0.111168306076568   0.222250819704946   0.875000000000000   1.0000000
B2   B   0.444513421018593   0.222239245441043   0.875000000000000   1.0000000
B2   B   0.611082513628394   0.722165027256787   0.875000000000000   1.0000000
B2   B   0.944420430963972   0.722159190458579   0.875000000000000   1.0000000
B2   B   0.777844194957550   0.222253931142906   0.875000000000000   1.0000000
B2   B   0.111111111111114   0.722222222222221   0.375000000000000   1.0000000
B2   B   0.444704117934279   0.725667320597629   0.375000000000000   1.0000000
B2   B   0.270898551776475   0.214112317179080   0.375000000000000   1.0000000
B2   B   0.780963202663295   0.725667320597629   0.375000000000000   1.0000000
B2   B   0.611615396497326   0.221717936836022   0.375000000000000   1.0000000
B2   B   0.943799823455191   0.221777699473520   0.375000000000000   1.0000000
B2   B   0.111105979990796   0.388893998440888   0.875000000000000   1.0000000
B2   B   0.277738759494573   0.888912902369357   0.875000000000000   1.0000000
B2   B   0.611079402190434   0.888923597147997   0.875000000000000   1.0000000
B2   B   0.444444444444443   0.388888888888886   0.875000000000000   1.0000000
B2   B   0.944413143033496   0.888920190299833   0.875000000000000   1.0000000
B2   B   0.110478891773779   0.887934511507348   0.375000000000000   1.0000000
B2   B   0.777788018450113   0.388893998440888   0.875000000000000   1.0000000
B2   B   0.444863513096627   0.889098423214984   0.375000000000000   1.0000000
B2   B   0.270898551776475   0.390119567930723   0.375000000000000   1.0000000
B2   B   0.276096452593000   0.557236880740319   0.375000000000000   1.0000000
B2   B   0.619221016154263   0.390119567930723   0.375000000000000   1.0000000
B2   B   0.777977876018336   0.889533509878137   0.375000000000000   1.0000000
B2   B   0.944234910118345   0.388469820236702   0.375000000000000   1.0000000
B2   B   0.111174142874749   0.555594573838733   0.875000000000000   1.0000000
B2   B   0.277736485484532   0.055472970969105   0.875000000000000   1.0000000
B2   B   0.777860362364272   0.555596847848768   0.875000000000000   1.0000000
B2   B   0.611079402190434   0.055489138375781   0.875000000000000   1.0000000
B2   B   0.944409736185332   0.055489138375781   0.875000000000000   1.0000000
B2   B   0.055560908436987   0.111057989244814   0.124809975293239   1.0000000
B2   B   0.555592656052114   0.611185312104229   0.124345239629537   1.0000000
B2   B   0.388908162228494   0.111024593373347   0.124500569542103   1.0000000
B2   B   0.888901933193628   0.611117633263467   0.124926729291886   1.0000000
B2   B   0.722256305667492   0.111077027665864   0.125012004415252   1.0000000
B2   B   0.055589832428875   0.777743500904485   0.624998324859436   1.0000000
B2   B   0.388915829518479   0.777754566651462   0.625033144857464   1.0000000
B2   B   0.222148021229127   0.277740677281221   0.625654760370469   1.0000000
B2   B   0.722275344088494   0.777772424896359   0.625190024706775   1.0000000
B2   B   0.555592656052114   0.277740677281221   0.625654760370469   1.0000000
B2   B   0.888889114807503   0.277778229615021   0.624988718630256   1.0000000
B2   B   0.222153668475584   0.777743500904485   0.125001675140564   1.0000000
B2   B   0.055560908436987   0.277836252525506   0.124809975293239   1.0000000
B2   B   0.388802466301977   0.277604932603982   0.124998705431233   1.0000000
B2   B   0.555497080807827   0.777772424896359   0.124809975293239   1.0000000
B2   B   0.888838737132943   0.777754566651462   0.124966855142558   1.0000000
B2   B   0.722275344088494   0.277836252525506   0.124809975293239   1.0000000
B2   B   0.055578766681908   0.944494596200386   0.625033144857464   1.0000000
B2   B   0.388915829518479   0.944494596200386   0.625033144857464   1.0000000
B2   B   0.222116431144839   0.444425171104835   0.625499430457896   1.0000000
B2   B   0.555728400729375   0.444530867031352   0.625001294568765   1.0000000
B2   B   0.722256305667492   0.944512611334949   0.624987995584786   1.0000000
B2   B   0.888838737132943   0.444417503814850   0.625033144857464   1.0000000
B2   B   0.055578766681908   0.444417503814850   0.124966855142558   1.0000000
B2   B   0.222215700069860   0.944431400139701   0.124926729291886   1.0000000
B2   B   0.555555103718301   0.944444218525825   0.125011281369760   1.0000000
B2   B   0.388802466301977   0.444530867031352   0.124998705431233   1.0000000
B2   B   0.888889114807503   0.944444218525825   0.125011281369760   1.0000000
B2   B   0.722308739960018   0.444425171104835   0.124500569542103   1.0000000
B2   B   0.222215700069860   0.611117633263467   0.625073270708122   1.0000000
B2   B   0.055560908436987   0.111057989244816   0.625190024706775   1.0000000
B2   B   0.555592656052114   0.611185312104229   0.625654760370469   1.0000000
B2   B   0.388908162228494   0.111024593373347   0.625499430457896   1.0000000
B2   B   0.888901933193628   0.611117633263467   0.625073270708122   1.0000000
B2   B   0.055589832428875   0.611179664857751   0.125001675140564   1.0000000
B2   B   0.722256305667492   0.111077027665864   0.624987995584786   1.0000000
B2   B   0.222116431144839   0.111024593373347   0.124500569542103   1.0000000
B2   B   0.388908162228494   0.611216902188504   0.124500569542103   1.0000000
B2   B   0.722308739960018   0.611216902188504   0.124500569542103   1.0000000
B2   B   0.555497080807827   0.111057989244814   0.124809975293239   1.0000000
B2   B   0.388908162228494   0.611216902188504   0.625499430457896   1.0000000
B2   B   0.888820721998380   0.111077027665864   0.125012004415252   1.0000000
B2   B   0.222153668475584   0.777743500904485   0.624998324859436   1.0000000
B2   B   0.055560908436987   0.277836252525506   0.625190024706775   1.0000000
B2   B   0.388802466301977   0.277604932603982   0.625001294568765   1.0000000
B2   B   0.555497080807827   0.777772424896359   0.625190024706775   1.0000000
B2   B   0.888838737132943   0.777754566651462   0.625033144857464   1.0000000
B2   B   0.722275344088494   0.277836252525506   0.625190024706775   1.0000000
B2   B   0.055589832428875   0.777743500904485   0.125001675140564   1.0000000
B2   B   0.388915829518479   0.777754566651462   0.124966855142558   1.0000000
B2   B   0.222148021229127   0.277740677281221   0.124345239629537   1.0000000
B2   B   0.722275344088494   0.777772424896359   0.124809975293239   1.0000000
B2   B   0.555592656052114   0.277740677281221   0.124345239629537   1.0000000
B2   B   0.888889114807503   0.277778229615021   0.125011281369760   1.0000000
B2   B   0.055578766681908   0.444417503814850   0.625033144857464   1.0000000
B2   B   0.222215700069860   0.944431400139701   0.625073270708122   1.0000000
B2   B   0.555555103718301   0.944444218525825   0.624988718630256   1.0000000
B2   B   0.388802466301977   0.444530867031352   0.625001294568765   1.0000000
B2   B   0.888889114807503   0.944444218525825   0.624988718630256   1.0000000
B2   B   0.055578766681908   0.944494596200386   0.124966855142558   1.0000000
B2   B   0.722308739960018   0.444425171104835   0.625499430457896   1.0000000
B2   B   0.388915829518479   0.944494596200386   0.124966855142558   1.0000000
B2   B   0.222116431144839   0.444425171104835   0.124500569542103   1.0000000
B2   B   0.222215700069860   0.611117633263467   0.124926729291886   1.0000000
B2   B   0.555728400729375   0.444530867031352   0.124998705431233   1.0000000
B2   B   0.722256305667492   0.944512611334949   0.125012004415252   1.0000000
B2   B   0.888838737132943   0.444417503814850   0.124966855142558   1.0000000
B2   B   0.055589832428875   0.611179664857751   0.624998324859436   1.0000000
B2   B   0.222116431144839   0.111024593373347   0.625499430457896   1.0000000
B2   B   0.722308739960018   0.611216902188504   0.625499430457896   1.0000000
B2   B   0.555497080807827   0.111057989244816   0.625190024706775   1.0000000
B2   B   0.888820721998380   0.111077027665864   0.624987995584786   1.0000000


