data_1
_audit_creation_method   'vasp2cif'
_cell_length_a    17.52789999999977
_cell_length_b    17.52789999999977
_cell_length_c    15.0
_cell_angle_alpha    90.0
_cell_angle_beta    90.0
_cell_angle_gamma    119.99999999999916

_symmetry_space_group_name_H-M    'P 1'
loop_
_atom_site_label
_atom_site_type_symbol
_atom_site_fract_x
_atom_site_fract_y
_atom_site_fract_z
_atom_site_occupancy
B2   B   0.903868502269818   0.951430049837105   0.110960057595435   1.0000000
B2   B   0.905193885063030   0.094808136132966   0.110980560411371   1.0000000
B2   B   0.905683914484861   0.237691514116040   0.111183882177597   1.0000000
B2   B   0.905700679055911   0.380563525451085   0.110764570756448   1.0000000
B2   B   0.905231087167484   0.523503933658301   0.109705651182648   1.0000000
B2   B   0.903813480995655   0.666179867115729   0.110200168830913   1.0000000
B2   B   0.902993146365652   0.808354195197813   0.110562824383699   1.0000000
B2   B   0.047256989494279   0.952745031701728   0.110850206811461   1.0000000
B2   B   0.048571971358903   0.096133518926175   0.110960057595435   1.0000000
B2   B   0.048968520672546   0.238696222750989   0.111423296486276   1.0000000
B2   B   0.048508837789458   0.381194932011517   0.111599694681584   1.0000000
B2   B   0.047503995786792   0.524094714180493   0.111310645524566   1.0000000
B2   B   0.046857175360528   0.666991019370949   0.111104540819090   1.0000000
B2   B   0.046753374332529   0.809774543179122   0.111036339810097   1.0000000
B2   B   0.190227478016888   0.953248646863482   0.111036339810097   1.0000000
B2   B   0.191647825998191   0.097008874830346   0.110562824383699   1.0000000
B2   B   0.193466449629833   0.241067412452373   0.112461942618576   1.0000000
B2   B   0.192187430014707   0.382464345011762   0.113430755212082   1.0000000
B2   B   0.189781377231966   0.524842320148129   0.112736238826574   1.0000000
B2   B   0.189363793777511   0.667570859792318   0.111295288706171   1.0000000
B2   B   0.189676258532230   0.810325762663773   0.111285732127564   1.0000000
B2   B   0.333011001826048   0.953144845835474   0.111104540819090   1.0000000
B2   B   0.333822154081269   0.096188540200339   0.110200168830913   1.0000000
B2   B   0.336265756612834   0.241084366954901   0.111606996972216   1.0000000
B2   B   0.339544091976272   0.386409257571901   0.111893105142975   1.0000000
B2   B   0.331663653574354   0.526890402943653   0.108078263310146   1.0000000
B2   B   0.331582796151456   0.668419225045543   0.109095656595720   1.0000000
B2   B   0.332431161404681   0.810638227418492   0.111295288706171   1.0000000
B2   B   0.475907307016511   0.952498025409208   0.111310645524566   1.0000000
B2   B   0.476498087538699   0.094770934028515   0.109705651182648   1.0000000
B2   B   0.477362853390086   0.237047399997384   0.108795763451424   1.0000000
B2   B   0.481426510854118   0.380515739420079   0.124218718104652   1.0000000
B2   B   0.473111618253353   0.668338367622644   0.108078263310146   1.0000000
B2   B   0.475159701048878   0.810220643964040   0.112736238826574   1.0000000
B2   B   0.618807089184487   0.951493183406550   0.111599694681584   1.0000000
B2   B   0.619438495744909   0.094301342140087   0.110764570756448   1.0000000
B2   B   0.620037639588120   0.236750496259301   0.108611844155770   1.0000000
B2   B   0.621041946120565   0.378960075075439   0.110251399059575   1.0000000
B2   B   0.619486281775916   0.518575510342877   0.124218718104652   1.0000000
B2   B   0.613592763624109   0.660457929220727   0.111893105142975   1.0000000
B2   B   0.617537676184239   0.807814591181296   0.113430755212082   1.0000000
B2   B   0.761305798445013   0.951033500523458   0.111423296486276   1.0000000
B2   B   0.762310507079950   0.094318106711135   0.111183882177597   1.0000000
B2   B   0.762818777734874   0.237183243461129   0.110678696630787   1.0000000
B2   B   0.763251524936702   0.379964381607885   0.108611844155770   1.0000000
B2   B   0.762954621198618   0.522639167806920   0.108795763451424   1.0000000
B2   B   0.758917654241097   0.663736264584173   0.111606996972216   1.0000000
B2   B   0.758934608743629   0.806535571566165   0.112461942618576   1.0000000
N2   N   0.951511204440698   0.904031515878017   0.110753109093724   1.0000000
N2   N   0.952719206409961   0.047282195508045   0.110835876768421   1.0000000
N2   N   0.953430667201765   0.190298730549662   0.111036551125050   1.0000000
N2   N   0.953316934894880   0.333032402663086   0.111169910043840   1.0000000
N2   N   0.952655171920252   0.475892119608309   0.110724840473660   1.0000000
N2   N   0.951755588262478   0.618838849936418   0.110390629721740   1.0000000
N2   N   0.951286317929411   0.761490448108146   0.110615451865953   1.0000000
N2   N   0.094800592791258   0.905200809126740   0.111079200780080   1.0000000
N2   N   0.095969886039977   0.048490197477307   0.110753109093724   1.0000000
N2   N   0.097395760519712   0.192003659917924   0.111527403078481   1.0000000
N2   N   0.096687909543028   0.334021512064135   0.111781942799438   1.0000000
N2   N   0.095014717033096   0.476501838851222   0.111825797315798   1.0000000
N2   N   0.094393194894075   0.619421565008695   0.111402607715555   1.0000000
N2   N   0.094414128719843   0.762325537363351   0.111274886338023   1.0000000
N2   N   0.237675864554653   0.905587273198161   0.111274886338023   1.0000000
N2   N   0.238510953809862   0.048715083988591   0.110615451865953   1.0000000
N2   N   0.240589399870957   0.192973432575556   0.110790934050825   1.0000000
N2   N   0.242452579745198   0.337208203763815   0.113988074707551   1.0000000
N2   N   0.237490748829746   0.477546806329998   0.114541279171825   1.0000000
N2   N   0.236713126688304   0.620056873367984   0.111089181606333   1.0000000
N2   N   0.237191561374929   0.762809840543077   0.111136831933130   1.0000000
N2   N   0.380579836909304   0.905608207023920   0.111402607715555   1.0000000
N2   N   0.381162551981580   0.048245813655525   0.110390629721740   1.0000000
N2   N   0.382202750200372   0.191554383459729   0.109884335083214   1.0000000
N2   N   0.386186335676252   0.337509254663594   0.115430739520238   1.0000000
N2   N   0.380830885197737   0.481934352151143   0.104558313114196   1.0000000
N2   N   0.378673758698255   0.621327643219742   0.104934796343340   1.0000000
N2   N   0.379944528550013   0.763288275229703   0.111089181606333   1.0000000
N2   N   0.523499563065772   0.904986684884899   0.111825797315798   1.0000000
N2   N   0.524109282308688   0.047346229997754   0.110724840473660   1.0000000
N2   N   0.524761814890445   0.189562133227222   0.108059762102987   1.0000000
N2   N   0.526073658708454   0.331507776902949   0.111148823530417   1.0000000
N2   N   0.518067049765850   0.619170516720264   0.104558313114196   1.0000000
N2   N   0.522454595587008   0.762510653088267   0.114541279171825   1.0000000
N2   N   0.665979889852861   0.903313492374973   0.111781942799438   1.0000000
N2   N   0.666968999253914   0.046684467023126   0.111169910043840   1.0000000
N2   N   0.667568265961694   0.189370558355348   0.110231031156716   1.0000000
N2   N   0.668272496786450   0.331728905130549   0.107896551560777   1.0000000
N2   N   0.668493625014050   0.473927743208543   0.111148823530417   1.0000000
N2   N   0.662492147253405   0.613815066241745   0.115430739520238   1.0000000
N2   N   0.662793198153184   0.757548822172807   0.113988074707551   1.0000000
N2   N   0.807997742000075   0.902605641398286   0.111527403078481   1.0000000
N2   N   0.809702671368341   0.046570734716244   0.111036551125050   1.0000000
N2   N   0.810352647062469   0.189648754855528   0.111254583278925   1.0000000
N2   N   0.810630843562646   0.332433135955311   0.110231031156716   1.0000000
N2   N   0.810439268690771   0.475239587026553   0.108059762102987   1.0000000
N2   N   0.808447018458270   0.617798651717626   0.109884335083214   1.0000000
N2   N   0.807027969342446   0.759412002047051   0.110790934050825   1.0000000
O2   O   0.464803889966690   0.535198131230310   0.063252439326641   1.0000000
O2   O   0.532112814822374   0.467888587094624   0.146015083643247   1.0000000


