data_1
_audit_creation_method   'vasp2cif'
_cell_length_a    14.93631414619966
_cell_length_b    14.936314146199727
_cell_length_c    13.341276283792837
_cell_angle_alpha    90.0
_cell_angle_beta    90.0
_cell_angle_gamma    119.99999999999984

_symmetry_space_group_name_H-M    'P 1'
loop_
_atom_site_label
_atom_site_type_symbol
_atom_site_fract_x
_atom_site_fract_y
_atom_site_fract_z
_atom_site_occupancy
C2   C   0.389245958687523   0.439058318355531   0.375000000000000   1.0000000
C2   C   0.445045598363530   0.390091196727059   0.375000000000000   1.0000000
C2   C   0.549812359668007   0.439058318355531   0.375000000000000   1.0000000
N2   N   0.111129634695083   0.055562242737762   0.125330802890933   1.0000000
N2   N   0.611086653434313   0.555526910517483   0.125261282639633   1.0000000
N2   N   0.444432608042678   0.055562242737762   0.125330802890933   1.0000000
N2   N   0.944444754334586   0.555555309418898   0.125145644273446   1.0000000
N2   N   0.777783994369271   0.055567988738542   0.125111781593595   1.0000000
N2   N   0.111104907164851   0.722209814329695   0.624878435268115   1.0000000
N2   N   0.444434734097980   0.722205987534847   0.624783120895070   1.0000000
N2   N   0.277804544500794   0.222245723205194   0.624166943690491   1.0000000
N2   N   0.777771253436866   0.722205987534847   0.624783120895070   1.0000000
N2   N   0.611107766126032   0.222233124024547   0.624669841248607   1.0000000
N2   N   0.944454869094184   0.222237980876987   0.624885987921973   1.0000000
N2   N   0.277768639557157   0.722208967978548   0.125146581267731   1.0000000
N2   N   0.111125357898520   0.222233124024547   0.125330158751393   1.0000000
N2   N   0.444441178704399   0.222245723205194   0.125833056309509   1.0000000
N2   N   0.611104083230533   0.722208166461057   0.125215099205200   1.0000000
N2   N   0.944440328421394   0.722208967978548   0.125146581267731   1.0000000
N2   N   0.777783111782804   0.222237980876987   0.125114012078027   1.0000000
N2   N   0.111109321682175   0.888878877874163   0.624838465529122   1.0000000
N2   N   0.444433667642403   0.888886046880648   0.624878708372168   1.0000000
N2   N   0.277787343204351   0.388885259610204   0.624636305590731   1.0000000
N2   N   0.611097916405860   0.388885259610204   0.624636305590731   1.0000000
N2   N   0.777785338979332   0.888890463367982   0.624887693287355   1.0000000
N2   N   0.944451532319520   0.388903064639041   0.624889069105878   1.0000000
N2   N   0.111116588834156   0.388898823543733   0.125228852284443   1.0000000
N2   N   0.277769556191995   0.888878877874163   0.125161534470877   1.0000000
N2   N   0.611105124388657   0.888890463367982   0.125112306712646   1.0000000
N2   N   0.444440754830762   0.388881509661524   0.123374935844821   1.0000000
N2   N   0.944452379238245   0.888886046880648   0.125121291627832   1.0000000
N2   N   0.777782234709584   0.388898823543733   0.125228852284443   1.0000000
N2   N   0.277778855407549   0.555543640604342   0.624676677318160   1.0000000
N2   N   0.111129634695083   0.055562242737762   0.624669197109067   1.0000000
N2   N   0.611086653434313   0.555526910517483   0.624738717360367   1.0000000
N2   N   0.444432608042678   0.055562242737762   0.624669197109067   1.0000000
N2   N   0.944444754334586   0.555555309418898   0.624854355726555   1.0000000
N2   N   0.111110555084311   0.555555309418898   0.125145644273446   1.0000000
N2   N   0.777783994369271   0.055567988738542   0.624888218406405   1.0000000
N2   N   0.277779216318158   0.055558432636316   0.125496429612108   1.0000000
N2   N   0.444440257083170   0.555526910517483   0.125261282639633   1.0000000
N2   N   0.777764785196793   0.555543640604342   0.125323322681841   1.0000000
N2   N   0.611102387389941   0.055564162494263   0.125136825445006   1.0000000
N2   N   0.444440257083170   0.555526910517483   0.624738717360367   1.0000000
N2   N   0.944461775104323   0.055564162494263   0.125136825445006   1.0000000
N2   N   0.277768639557157   0.722208967978548   0.624853418732269   1.0000000
N2   N   0.111125357898520   0.222233124024547   0.624669841248607   1.0000000
N2   N   0.444441178704399   0.222245723205194   0.624166943690491   1.0000000
N2   N   0.611104083230533   0.722208166461057   0.624784900794800   1.0000000
N2   N   0.944440328421394   0.722208967978548   0.624853418732269   1.0000000
N2   N   0.777783111782804   0.222237980876987   0.624885987921973   1.0000000
N2   N   0.111104907164851   0.722209814329695   0.125121564731885   1.0000000
N2   N   0.444434734097980   0.722205987534847   0.125216879104929   1.0000000
N2   N   0.277804544500794   0.222245723205194   0.125833056309509   1.0000000
N2   N   0.777771253436866   0.722205987534847   0.125216879104929   1.0000000
N2   N   0.611107766126032   0.222233124024547   0.125330158751393   1.0000000
N2   N   0.944454869094184   0.222237980876987   0.125114012078027   1.0000000
N2   N   0.111116588834156   0.388898823543733   0.624771147715556   1.0000000
N2   N   0.277769556191995   0.888878877874163   0.624838465529122   1.0000000
N2   N   0.611105124388657   0.888890463367982   0.624887693287355   1.0000000
N2   N   0.444440754830762   0.388881509661524   0.626625064155180   1.0000000
N2   N   0.944452379238245   0.888886046880648   0.624878708372168   1.0000000
N2   N   0.111109321682175   0.888878877874163   0.125161534470877   1.0000000
N2   N   0.777782234709584   0.388898823543733   0.624771147715556   1.0000000
N2   N   0.444433667642403   0.888886046880648   0.125121291627832   1.0000000
N2   N   0.277787343204351   0.388885259610204   0.125363694409269   1.0000000
N2   N   0.277778855407549   0.555543640604342   0.125323322681841   1.0000000
N2   N   0.611097916405860   0.388885259610204   0.125363694409269   1.0000000
N2   N   0.777785338979332   0.888890463367982   0.125112306712646   1.0000000
N2   N   0.944451532319520   0.388903064639041   0.125110930894122   1.0000000
N2   N   0.111110555084311   0.555555309418898   0.624854355726555   1.0000000
N2   N   0.277779216318158   0.055558432636316   0.624503570387892   1.0000000
N2   N   0.777764785196793   0.555543640604342   0.624676677318160   1.0000000
N2   N   0.611102387389941   0.055564162494263   0.624863174554994   1.0000000
N2   N   0.944461775104323   0.055564162494263   0.624863174554994   1.0000000
N2   N   0.055562727757640   0.110643582764096   0.375000000000000   1.0000000
N2   N   0.557520296056321   0.615040592112642   0.375000000000000   1.0000000
N2   N   0.388293377297368   0.112883675527920   0.375000000000000   1.0000000
N2   N   0.888427358912217   0.610876470403312   0.375000000000000   1.0000000
N2   N   0.722114577359152   0.111116952040595   0.375000000000000   1.0000000
N2   N   0.055556896588529   0.777783009925748   0.875000000000000   1.0000000
N2   N   0.388893484577903   0.777782953866091   0.875000000000000   1.0000000
N2   N   0.222224093612624   0.277777249358364   0.875000000000000   1.0000000
N2   N   0.722222635740510   0.777780166374286   0.875000000000000   1.0000000
N2   N   0.555553155745741   0.277777249358364   0.875000000000000   1.0000000
N2   N   0.888888657019468   0.277777314038943   0.875000000000000   1.0000000
N2   N   0.222256489146437   0.777829138959274   0.375000000000000   1.0000000
N2   N   0.055637591965982   0.277268089069130   0.375000000000000   1.0000000
N2   N   0.555909488588204   0.779251851436682   0.375000000000000   1.0000000
N2   N   0.889392838986397   0.778311590311785   0.375000000000000   1.0000000
N2   N   0.721630497103148   0.277268089069130   0.375000000000000   1.0000000
N2   N   0.055555545115595   0.944450267820064   0.875000000000000   1.0000000
N2   N   0.388894722704470   0.944450267820064   0.875000000000000   1.0000000
N2   N   0.222226027013691   0.444445137403931   0.875000000000000   1.0000000
N2   N   0.555561513762026   0.444451799986677   0.875000000000000   1.0000000
N2   N   0.722222600110008   0.944445200220016   0.875000000000000   1.0000000
N2   N   0.888887568336339   0.444443693447686   0.875000000000000   1.0000000
N2   N   0.055189799615494   0.444205322547746   0.375000000000000   1.0000000
N2   N   0.222339587465864   0.944679174931727   0.375000000000000   1.0000000
N2   N   0.555471120027233   0.944886944726456   0.375000000000000   1.0000000
N2   N   0.889415824699224   0.944886944726456   0.375000000000000   1.0000000
N2   N   0.722631296595748   0.443539432072274   0.375000000000000   1.0000000
N2   N   0.222223809619140   0.611111444306961   0.875000000000000   1.0000000
N2   N   0.055554818516504   0.111109212614840   0.875000000000000   1.0000000
N2   N   0.555556148580094   0.611112297160189   0.875000000000000   1.0000000
N2   N   0.388891534396489   0.111112894202957   0.875000000000000   1.0000000
N2   N   0.888887634687814   0.611111444306961   0.875000000000000   1.0000000
N2   N   0.055515235492117   0.611030470984234   0.375000000000000   1.0000000
N2   N   0.722219264362229   0.111108521820233   0.875000000000000   1.0000000
N2   N   0.224590298230545   0.112883675527920   0.375000000000000   1.0000000
N2   N   0.389525261483565   0.611584857058906   0.375000000000000   1.0000000
N2   N   0.722059595575333   0.611584857058906   0.375000000000000   1.0000000
N2   N   0.555080855006455   0.110643582764096   0.375000000000000   1.0000000
N2   N   0.388892668889392   0.611113114815955   0.875000000000000   1.0000000
N2   N   0.889002374681436   0.111116952040595   0.375000000000000   1.0000000
N2   N   0.222226113337218   0.777783009925748   0.875000000000000   1.0000000
N2   N   0.055556641646378   0.277775021321621   0.875000000000000   1.0000000
N2   N   0.388886371086557   0.277772742173121   0.875000000000000   1.0000000
N2   N   0.555557530633776   0.777780166374286   0.875000000000000   1.0000000
N2   N   0.888889469288179   0.777782953866091   0.875000000000000   1.0000000
N2   N   0.722218379675242   0.277775021321621   0.875000000000000   1.0000000
N2   N   0.055572649812838   0.777829138959274   0.375000000000000   1.0000000
N2   N   0.388918751325382   0.778311590311785   0.375000000000000   1.0000000
N2   N   0.222407752887085   0.275940680567114   0.375000000000000   1.0000000
N2   N   0.723342362848477   0.779251851436682   0.375000000000000   1.0000000
N2   N   0.553532927680028   0.275940680567114   0.375000000000000   1.0000000
N2   N   0.888770315489154   0.277540630978316   0.375000000000000   1.0000000
N2   N   0.055556125111347   0.444443693447686   0.875000000000000   1.0000000
N2   N   0.222226034751143   0.944452069502287   0.875000000000000   1.0000000
N2   N   0.555556372594671   0.944447006004402   0.875000000000000   1.0000000
N2   N   0.388890286224651   0.444451799986677   0.875000000000000   1.0000000
N2   N   0.888890633409731   0.944447006004402   0.875000000000000   1.0000000
N2   N   0.056431362154126   0.945184462192608   0.375000000000000   1.0000000
N2   N   0.722219110390240   0.444445137403931   0.875000000000000   1.0000000
N2   N   0.388753100038483   0.945184462192608   0.375000000000000   1.0000000
N2   N   0.220908135476526   0.443539432072274   0.375000000000000   1.0000000
N2   N   0.222449111491088   0.610876470403312   0.375000000000000   1.0000000
N2   N   0.722525031507687   0.945050063015373   0.375000000000000   1.0000000
N2   N   0.889015522932253   0.444205322547746   0.375000000000000   1.0000000
N2   N   0.055555168856040   0.611110337712080   0.875000000000000   1.0000000
N2   N   0.222221359806460   0.111112894202957   0.875000000000000   1.0000000
N2   N   0.722220445926556   0.611113114815955   0.875000000000000   1.0000000
N2   N   0.555554394098337   0.111109212614840   0.875000000000000   1.0000000
N2   N   0.888889257457997   0.111108521820233   0.875000000000000   1.0000000
B2   B   0.111042651134382   0.055726603999359   0.375000000000000   1.0000000
B2   B   0.611677812529828   0.559507843670764   0.375000000000000   1.0000000
B2   B   0.444683952864978   0.055726603999359   0.375000000000000   1.0000000
B2   B   0.944365150801647   0.555417605895355   0.375000000000000   1.0000000
B2   B   0.777893290069550   0.055786580139101   0.375000000000000   1.0000000
B2   B   0.111108146446149   0.722216292892292   0.875000000000000   1.0000000
B2   B   0.444455374143878   0.722237641280968   0.875000000000000   1.0000000
B2   B   0.277766635638076   0.222220946222744   0.875000000000000   1.0000000
B2   B   0.777782267137090   0.722237641280968   0.875000000000000   1.0000000
B2   B   0.611128566739082   0.222214061968517   0.875000000000000   1.0000000
B2   B   0.944428395210069   0.222213235312621   0.875000000000000   1.0000000
B2   B   0.277856131367076   0.722244953083580   0.375000000000000   1.0000000
B2   B   0.109707380903883   0.220625790964462   0.375000000000000   1.0000000
B2   B   0.444980211240514   0.221338503587273   0.375000000000000   1.0000000
B2   B   0.612829045024813   0.725658090049619   0.375000000000000   1.0000000
B2   B   0.944388821716505   0.722244953083580   0.375000000000000   1.0000000
B2   B   0.777719949959206   0.221903220242997   0.375000000000000   1.0000000
B2   B   0.111094941993483   0.888874902680714   0.875000000000000   1.0000000
B2   B   0.444456025363710   0.888882259169513   0.875000000000000   1.0000000
B2   B   0.277778741992619   0.388908981880080   0.875000000000000   1.0000000
B2   B   0.611130239887467   0.388908981880080   0.875000000000000   1.0000000
B2   B   0.777772778219376   0.888891914351612   0.875000000000000   1.0000000
B2   B   0.944444053877300   0.388888107754599   0.875000000000000   1.0000000
B2   B   0.109851627130318   0.388386402167171   0.375000000000000   1.0000000
B2   B   0.277729242485579   0.888650420441624   0.375000000000000   1.0000000
B2   B   0.611503526515968   0.889981610267106   0.375000000000000   1.0000000
B2   B   0.944834339042039   0.889369187202487   0.375000000000000   1.0000000
B2   B   0.778534775036860   0.388386402167171   0.375000000000000   1.0000000
B2   B   0.277781354199807   0.555572935652347   0.875000000000000   1.0000000
B2   B   0.111080748624959   0.055537476181117   0.875000000000000   1.0000000
B2   B   0.611129218033038   0.555583878295910   0.875000000000000   1.0000000
B2   B   0.444456727556158   0.055537476181117   0.875000000000000   1.0000000
B2   B   0.944449514233737   0.555558204140211   0.875000000000000   1.0000000
B2   B   0.111052455093708   0.555417605895355   0.375000000000000   1.0000000
B2   B   0.777773191467970   0.055546382935939   0.875000000000000   1.0000000
B2   B   0.277231017164129   0.054462034328258   0.375000000000000   1.0000000
B2   B   0.447830031140934   0.559507843670764   0.375000000000000   1.0000000
B2   B   0.777547792317663   0.555504461778788   0.375000000000000   1.0000000
B2   B   0.611261559099735   0.055370105977847   0.375000000000000   1.0000000
B2   B   0.444454660262872   0.555583878295910   0.875000000000000   1.0000000
B2   B   0.944108546878112   0.055370105977847   0.375000000000000   1.0000000
B2   B   0.277782952004620   0.722224295539995   0.875000000000000   1.0000000
B2   B   0.111085495229442   0.222214061968517   0.875000000000000   1.0000000
B2   B   0.444454310584668   0.222220946222744   0.875000000000000   1.0000000
B2   B   0.611121296554703   0.722242593109401   0.875000000000000   1.0000000
B2   B   0.944441343535376   0.722224295539995   0.875000000000000   1.0000000
B2   B   0.777784840102552   0.222213235312621   0.875000000000000   1.0000000
B2   B   0.111057807633016   0.722115615266026   0.375000000000000   1.0000000
B2   B   0.444874411524452   0.723308037679371   0.375000000000000   1.0000000
B2   B   0.276358292346759   0.221338503587273   0.375000000000000   1.0000000
B2   B   0.778433626154918   0.723308037679371   0.375000000000000   1.0000000
B2   B   0.610918410060586   0.220625790964462   0.375000000000000   1.0000000
B2   B   0.944183270283790   0.221903220242997   0.375000000000000   1.0000000
B2   B   0.111100211666097   0.388892499286397   0.875000000000000   1.0000000
B2   B   0.277779960687238   0.888874902680714   0.875000000000000   1.0000000
B2   B   0.611119136132242   0.888891914351612   0.875000000000000   1.0000000
B2   B   0.444458333428722   0.388916666857444   0.875000000000000   1.0000000
B2   B   0.944426233805803   0.888882259169513   0.875000000000000   1.0000000
B2   B   0.110921177956053   0.888650420441624   0.375000000000000   1.0000000
B2   B   0.777792287620307   0.388892499286397   0.875000000000000   1.0000000
B2   B   0.444534848160449   0.889369187202487   0.375000000000000   1.0000000
B2   B   0.272850470508506   0.386180159906227   0.375000000000000   1.0000000
B2   B   0.277956669461125   0.555504461778788   0.375000000000000   1.0000000
B2   B   0.613329689397728   0.386180159906227   0.375000000000000   1.0000000
B2   B   0.778478083751146   0.889981610267106   0.375000000000000   1.0000000
B2   B   0.944293163847762   0.388586327695524   0.375000000000000   1.0000000
B2   B   0.111108689906473   0.555558204140211   0.875000000000000   1.0000000
B2   B   0.277768430499578   0.055536860999156   0.875000000000000   1.0000000
B2   B   0.777791581452539   0.555572935652347   0.875000000000000   1.0000000
B2   B   0.611123119439020   0.055542580548249   0.875000000000000   1.0000000
B2   B   0.944419461109230   0.055542580548249   0.875000000000000   1.0000000
B2   B   0.055482436090216   0.111078790257486   0.124887657836718   1.0000000
B2   B   0.555584418654982   0.611168837309962   0.124916630753421   1.0000000
B2   B   0.388880311405392   0.111036365932074   0.125012525216604   1.0000000
B2   B   0.888933415785495   0.611122517191427   0.124957342505474   1.0000000
B2   B   0.722248797446324   0.111116013380714   0.124883542039135   1.0000000
B2   B   0.055527807931005   0.777711472229035   0.625105919931452   1.0000000
B2   B   0.388869326240825   0.777757213989779   0.625074804352773   1.0000000
B2   B   0.222156387583808   0.277810891724414   0.625058942179415   1.0000000
B2   B   0.722237953518134   0.777797593039249   0.625062625048005   1.0000000
B2   B   0.555654504140606   0.277810891724414   0.625058942179415   1.0000000
B2   B   0.888904488897043   0.277808977794090   0.625115586126017   1.0000000
B2   B   0.222183664298030   0.777711472229035   0.124894080068548   1.0000000
B2   B   0.055499150031171   0.277806255727211   0.124895829129443   1.0000000
B2   B   0.388963306146060   0.277926612292127   0.124428068372045   1.0000000
B2   B   0.555559639521115   0.777797593039249   0.124937374951996   1.0000000
B2   B   0.888887887748947   0.777757213989779   0.124925195647227   1.0000000
B2   B   0.722307105696040   0.277806255727211   0.124895829129443   1.0000000
B2   B   0.055494758435519   0.944361026311819   0.625123068967857   1.0000000
B2   B   0.388866267876300   0.944361026311819   0.625123068967857   1.0000000
B2   B   0.222176404736603   0.444490301638354   0.625020860786242   1.0000000
B2   B   0.555516732037777   0.444462172838277   0.625749006275016   1.0000000
B2   B   0.722224019756146   0.944448039512293   0.625098515769352   1.0000000
B2   B   0.888940108152966   0.444475802962257   0.625079759696053   1.0000000
B2   B   0.055535694809291   0.444475802962257   0.124920240303947   1.0000000
B2   B   0.222157420471559   0.944314840943117   0.124875284998794   1.0000000
B2   B   0.555557026535770   0.944421563079261   0.124883276618142   1.0000000
B2   B   0.388945440800500   0.444462172838277   0.124250993724984   1.0000000
B2   B   0.888864536543492   0.944421563079261   0.124883276618142   1.0000000
B2   B   0.722313896901750   0.444490301638354   0.124979139213758   1.0000000
B2   B   0.222189101405924   0.611122517191427   0.625042657494527   1.0000000
B2   B   0.055482436090216   0.111078790257486   0.625112342163282   1.0000000
B2   B   0.555584418654982   0.611168837309962   0.625083369246579   1.0000000
B2   B   0.388880311405392   0.111036365932074   0.624987474783397   1.0000000
B2   B   0.888933415785495   0.611122517191427   0.625042657494527   1.0000000
B2   B   0.055552003556912   0.611104007113824   0.124918513173426   1.0000000
B2   B   0.722248797446324   0.111116013380714   0.625116457960865   1.0000000
B2   B   0.222156054526675   0.111036365932074   0.125012525216604   1.0000000
B2   B   0.388884183809202   0.611147708133641   0.125007067114888   1.0000000
B2   B   0.722263524324432   0.611147708133641   0.125007067114888   1.0000000
B2   B   0.555596354167270   0.111078790257486   0.124887657836718   1.0000000
B2   B   0.388884183809202   0.611147708133641   0.624992932885112   1.0000000
B2   B   0.888867215934383   0.111116013380714   0.124883542039135   1.0000000
B2   B   0.222183664298030   0.777711472229035   0.625105919931452   1.0000000
B2   B   0.055499150031171   0.277806255727211   0.625104170870557   1.0000000
B2   B   0.388963306146060   0.277926612292127   0.625571931627955   1.0000000
B2   B   0.555559639521115   0.777797593039249   0.625062625048005   1.0000000
B2   B   0.888887887748947   0.777757213989779   0.625074804352773   1.0000000
B2   B   0.722307105696040   0.277806255727211   0.625104170870557   1.0000000
B2   B   0.055527807931005   0.777711472229035   0.124894080068548   1.0000000
B2   B   0.388869326240825   0.777757213989779   0.124925195647227   1.0000000
B2   B   0.222156387583808   0.277810891724414   0.124941057820585   1.0000000
B2   B   0.722237953518134   0.777797593039249   0.124937374951996   1.0000000
B2   B   0.555654504140606   0.277810891724414   0.124941057820585   1.0000000
B2   B   0.888904488897043   0.277808977794090   0.124884413873983   1.0000000
B2   B   0.055535694809291   0.444475802962257   0.625079759696053   1.0000000
B2   B   0.222157420471559   0.944314840943117   0.625124715001206   1.0000000
B2   B   0.555557026535770   0.944421563079261   0.625116723381858   1.0000000
B2   B   0.388945440800500   0.444462172838277   0.625749006275016   1.0000000
B2   B   0.888864536543492   0.944421563079261   0.625116723381858   1.0000000
B2   B   0.055494758435519   0.944361026311819   0.124876931032143   1.0000000
B2   B   0.722313896901750   0.444490301638354   0.625020860786242   1.0000000
B2   B   0.388866267876300   0.944361026311819   0.124876931032143   1.0000000
B2   B   0.222176404736603   0.444490301638354   0.124979139213758   1.0000000
B2   B   0.222189101405924   0.611122517191427   0.124957342505474   1.0000000
B2   B   0.555516732037777   0.444462172838277   0.124250993724984   1.0000000
B2   B   0.722224019756146   0.944448039512293   0.124901484230648   1.0000000
B2   B   0.888940108152966   0.444475802962257   0.124920240303947   1.0000000
B2   B   0.055552003556912   0.611104007113824   0.625081486826573   1.0000000
B2   B   0.222156054526675   0.111036365932074   0.624987474783397   1.0000000
B2   B   0.722263524324432   0.611147708133641   0.624992932885112   1.0000000
B2   B   0.555596354167270   0.111078790257486   0.625112342163282   1.0000000
B2   B   0.888867215934383   0.111116013380714   0.625116457960865   1.0000000


