data_1
_audit_creation_method   'vasp2cif'
_cell_length_a    17.52789999999977
_cell_length_b    17.52789999999977
_cell_length_c    15.0
_cell_angle_alpha    90.0
_cell_angle_beta    90.0
_cell_angle_gamma    119.99999999999916

_symmetry_space_group_name_H-M    'P 1'
loop_
_atom_site_label
_atom_site_type_symbol
_atom_site_fract_x
_atom_site_fract_y
_atom_site_fract_z
_atom_site_occupancy
B2   B   0.904546248895376   0.952472554760418   0.118462443731357   1.0000000
B2   B   0.904592178686677   0.095290213390122   0.118546034024256   1.0000000
B2   B   0.904648848471062   0.238152824753760   0.117833191199073   1.0000000
B2   B   0.904710539486104   0.381070019838786   0.116623208545640   1.0000000
B2   B   0.904549310228745   0.523959485842641   0.115397577110664   1.0000000
B2   B   0.904247041492706   0.666706127968742   0.115952003638131   1.0000000
B2   B   0.904168872156927   0.809385636625701   0.117878440495745   1.0000000
B2   B   0.047481911066652   0.952809033503989   0.119210804032696   1.0000000
B2   B   0.047522209741040   0.095514912270873   0.118376717758203   1.0000000
B2   B   0.047411868266160   0.238250240684546   0.115890995632051   1.0000000
B2   B   0.047270227374566   0.381163221626664   0.114186322815653   1.0000000
B2   B   0.047107518112424   0.524186644747973   0.114651209596368   1.0000000
B2   B   0.047187923951150   0.667094984959859   0.116040399606029   1.0000000
B2   B   0.047273605916261   0.809939404376333   0.118234321536652   1.0000000
B2   B   0.190431936668027   0.953145156715347   0.118171812071414   1.0000000
B2   B   0.190857730575505   0.096232069187322   0.117666212499003   1.0000000
B2   B   0.190308947160321   0.238343102718823   0.113642271982265   1.0000000
B2   B   0.189808587722560   0.381128810720913   0.108213003124029   1.0000000
B2   B   0.189376902336172   0.524384766318176   0.108658474768533   1.0000000
B2   B   0.189883564779217   0.667320094448034   0.112645504343837   1.0000000
B2   B   0.190123576980997   0.810196394829633   0.116117476995020   1.0000000
B2   B   0.333203318584499   0.953151655873448   0.115876557019072   1.0000000
B2   B   0.333629053774426   0.096301070605406   0.115424259562391   1.0000000
B2   B   0.334498318225750   0.239910576086282   0.112936029112349   1.0000000
B2   B   0.333153909279751   0.380095958151459   0.103242991720070   1.0000000
B2   B   0.331676189305711   0.525408597719467   0.098659459255999   1.0000000
B2   B   0.332451959633506   0.667563001989886   0.107134951177407   1.0000000
B2   B   0.332878463983833   0.810261704218714   0.112580188126274   1.0000000
B2   B   0.475949232542648   0.952861739614375   0.114575211149709   1.0000000
B2   B   0.476241651395721   0.095774468501068   0.114742975100976   1.0000000
B2   B   0.476797570388872   0.238872506621470   0.107972334344319   1.0000000
B2   B   0.478544300292629   0.383208113631612   0.096770152359953   1.0000000
B2   B   0.474343404423728   0.667251319644890   0.097024435921924   1.0000000
B2   B   0.475660990843176   0.810186174328993   0.108486163553719   1.0000000
B2   B   0.618814062950717   0.952495889528306   0.114198130337848   1.0000000
B2   B   0.618945863288576   0.095263370574679   0.116460974325652   1.0000000
B2   B   0.619290845265186   0.237943607429966   0.112300846569660   1.0000000
B2   B   0.620126498259904   0.380268353544415   0.101680297075631   1.0000000
B2   B   0.619044554490624   0.522277638043191   0.092891825193717   1.0000000
B2   B   0.620306782643032   0.666623290456758   0.100631174426564   1.0000000
B2   B   0.618834534412712   0.809790770019554   0.107671998799564   1.0000000
B2   B   0.761678467204454   0.952369503277822   0.115917619080938   1.0000000
B2   B   0.761751560147686   0.095200266603027   0.117853639493688   1.0000000
B2   B   0.761932269733404   0.238040072048256   0.116946935663850   1.0000000
B2   B   0.762219133192516   0.380825690877053   0.112725592175795   1.0000000
B2   B   0.761894768746567   0.523528513375970   0.109022583385759   1.0000000
B2   B   0.760804424196395   0.665780962164157   0.113023936083578   1.0000000
B2   B   0.761789544460546   0.809557058358874   0.113545679945029   1.0000000
N2   N   0.952048388996946   0.904804460684316   0.118977787584086   1.0000000
N2   N   0.952226978964254   0.047727057317891   0.119051328668973   1.0000000
N2   N   0.952227006012016   0.190540065740796   0.117997085626944   1.0000000
N2   N   0.952219165289105   0.333413192895034   0.116871543303359   1.0000000
N2   N   0.952088830505799   0.476347126242168   0.116185716049200   1.0000000
N2   N   0.952003907349655   0.619245109945643   0.116020969040399   1.0000000
N2   N   0.951949168932226   0.762014719876457   0.117944953588114   1.0000000
N2   N   0.095099117769646   0.905258303239865   0.119053012854535   1.0000000
N2   N   0.095381727885829   0.048199405179256   0.118894289855753   1.0000000
N2   N   0.095087645783411   0.190733967881787   0.116351962872250   1.0000000
N2   N   0.094818226894739   0.333495980182195   0.112991612479043   1.0000000
N2   N   0.094512191651914   0.476468256310736   0.112690283721921   1.0000000
N2   N   0.094761046536245   0.619481153626560   0.114520369637747   1.0000000
N2   N   0.094896492604712   0.762377058735542   0.117023228259933   1.0000000
N2   N   0.237938244294871   0.905446985294648   0.116995280286827   1.0000000
N2   N   0.238301073680690   0.048487914251758   0.117731794858437   1.0000000
N2   N   0.238794825176733   0.191683927934309   0.115661844622176   1.0000000
N2   N   0.237338339348092   0.333369165863772   0.108388443281352   1.0000000
N2   N   0.236381221967611   0.476472109812978   0.104376194219305   1.0000000
N2   N   0.237364732187170   0.619667169515009   0.109332891183455   1.0000000
N2   N   0.237674512096067   0.762546148446919   0.113790887623501   1.0000000
N2   N   0.380703609817870   0.905394633120974   0.114455318975104   1.0000000
N2   N   0.380991731624781   0.048368406396113   0.115550017018865   1.0000000
N2   N   0.381539579699938   0.191609964741589   0.112342634812372   1.0000000
N2   N   0.382586176534943   0.335446854138899   0.108056544011083   1.0000000
N2   N   0.370085571208187   0.471876131798965   0.087312782015780   1.0000000
N2   N   0.379922067847691   0.619962446187285   0.101919328185742   1.0000000
N2   N   0.380434973473206   0.762629986410587   0.109158779063411   1.0000000
N2   N   0.523548257903748   0.905168015558232   0.112698518250398   1.0000000
N2   N   0.523717843081754   0.047966277960262   0.115922112788213   1.0000000
N2   N   0.524095873280317   0.190905354092251   0.111893605508329   1.0000000
N2   N   0.525204632536336   0.333848663790244   0.099723935987438   1.0000000
N2   N   0.528607803379555   0.629351177891319   0.083060446293450   1.0000000
N2   N   0.523507788752430   0.762806573400719   0.103758172167275   1.0000000
N2   N   0.666398262844641   0.904813686400089   0.112949483991184   1.0000000
N2   N   0.666502357289028   0.047594265797236   0.116879954587687   1.0000000
N2   N   0.666746949844841   0.190356754461999   0.116026903650258   1.0000000
N2   N   0.667301953808238   0.332904167787836   0.108967161578919   1.0000000
N2   N   0.667215326327922   0.475256819536613   0.099838041081541   1.0000000
N2   N   0.665302672197533   0.617580262345475   0.106641387512702   1.0000000
N2   N   0.666674167326777   0.762305436946713   0.107554419554591   1.0000000
N2   N   0.809256796390738   0.904750311103258   0.116457552813175   1.0000000
N2   N   0.809321196822882   0.047563087082625   0.118028882491258   1.0000000
N2   N   0.809455856085240   0.190409254471222   0.118345685260610   1.0000000
N2   N   0.809651193210794   0.333248688041317   0.116220276854127   1.0000000
N2   N   0.809503711251155   0.476062719797139   0.112976245797822   1.0000000
N2   N   0.809011387123820   0.618773740872678   0.113078307697105   1.0000000
N2   N   0.808686747516529   0.761344970744199   0.115877119812186   1.0000000
S2   S   0.526793519586405   0.475066417261200   0.006005054547990   1.0000000


