data_1
_audit_creation_method   'vasp2cif'
_cell_length_a    17.52789999999977
_cell_length_b    17.52789999999977
_cell_length_c    15.0
_cell_angle_alpha    90.0
_cell_angle_beta    90.0
_cell_angle_gamma    119.99999999999916

_symmetry_space_group_name_H-M    'P 1'
loop_
_atom_site_label
_atom_site_type_symbol
_atom_site_fract_x
_atom_site_fract_y
_atom_site_fract_z
_atom_site_occupancy
B2   B   0.904648713174910   0.952188687621293   0.111023544333671   1.0000000
B2   B   0.904808731876843   0.095193232328744   0.111052401967124   1.0000000
B2   B   0.904805558222373   0.238168927105939   0.111048872033738   1.0000000
B2   B   0.904641366784945   0.381037347708574   0.111013486049177   1.0000000
B2   B   0.903694965362625   0.523616331768932   0.111018465267892   1.0000000
B2   B   0.903641748242634   0.666115811084988   0.111056843838467   1.0000000
B2   B   0.903699660860607   0.808664726690582   0.111022996399173   1.0000000
B2   B   0.047572734889636   0.952427613922008   0.111010161058667   1.0000000
B2   B   0.047812107864788   0.095352413810459   0.111019899888481   1.0000000
B2   B   0.047848784889590   0.238197770316772   0.111010441014106   1.0000000
B2   B   0.047821098265301   0.381025158644237   0.111020373509758   1.0000000
B2   B   0.047571855362682   0.523730452200823   0.111014011047810   1.0000000
B2   B   0.047243334787728   0.666470605657855   0.111027492836339   1.0000000
B2   B   0.047261044129538   0.809367098340937   0.111003681631188   1.0000000
B2   B   0.190633183157645   0.952739216303227   0.110999117264974   1.0000000
B2   B   0.191336092294988   0.096301325611793   0.111015396365439   1.0000000
B2   B   0.190909317496421   0.238503266893963   0.111021364825557   1.0000000
B2   B   0.190914423145623   0.380978109278761   0.111017983810922   1.0000000
B2   B   0.191337407966507   0.523604131151693   0.111018619407625   1.0000000
B2   B   0.190629981403663   0.666465795643224   0.111044438546883   1.0000000
B2   B   0.190470513537790   0.809529724916864   0.111002848130313   1.0000000
B2   B   0.333530451491143   0.952757576778979   0.111025094142795   1.0000000
B2   B   0.333885696665517   0.096359986911479   0.111044923385370   1.0000000
B2   B   0.335520611583700   0.240840334220438   0.111058985216588   1.0000000
B2   B   0.333592674971916   0.381088227646691   0.111058644056605   1.0000000
B2   B   0.335530822503768   0.523253507215657   0.111079519362455   1.0000000
B2   B   0.333895528487586   0.666105718900759   0.111072099546133   1.0000000
B2   B   0.333535022247316   0.809370539108390   0.111045558438254   1.0000000
B2   B   0.476271526060081   0.952429293676415   0.111019893464372   1.0000000
B2   B   0.476386056127326   0.096307070363870   0.111014133484816   1.0000000
B2   B   0.476744244163231   0.240830156255745   0.111040683500680   1.0000000
B2   B   0.480181333029156   0.388919914550368   0.111068446968060   1.0000000
B2   B   0.480192971380479   0.519808620605579   0.111097905159158   1.0000000
B2   B   0.476748594905451   0.664470771747771   0.111072705866021   1.0000000
B2   B   0.476397977816738   0.808663703841209   0.111022887167605   1.0000000
B2   B   0.618977810388857   0.952180496352904   0.111027816588466   1.0000000
B2   B   0.618965940057528   0.095361312876735   0.111017364950817   1.0000000
B2   B   0.619013758853434   0.238504612341475   0.111030156129338   1.0000000
B2   B   0.618926814233566   0.381076598474871   0.111041242684820   1.0000000
B2   B   0.611079870365875   0.519819977003186   0.111106163301209   1.0000000
B2   B   0.618914298581784   0.666409070918599   0.111044429342575   1.0000000
B2   B   0.619024260760369   0.809086529396639   0.111018447875515   1.0000000
B2   B   0.761804440448347   0.952152580219665   0.111014767973033   1.0000000
B2   B   0.761834295170157   0.095197252363402   0.111052860432730   1.0000000
B2   B   0.761792195399544   0.238210749855477   0.111056603145986   1.0000000
B2   B   0.761498758163763   0.380989733372188   0.111031144146234   1.0000000
B2   B   0.759171879414216   0.523258464396006   0.111047493976140   1.0000000
B2   B   0.759161457517805   0.664480673672927   0.111058666234155   1.0000000
B2   B   0.761498739649621   0.809091681435816   0.111022444850925   1.0000000
N2   N   0.951982669439219   0.904274806866849   0.110990306260043   1.0000000
N2   N   0.952463199205219   0.047538272727096   0.111011652772174   1.0000000
N2   N   0.952503589322304   0.190529970781748   0.111005670241763   1.0000000
N2   N   0.952459490531213   0.333490908971410   0.111002848431292   1.0000000
N2   N   0.951976498942235   0.476287851166133   0.110975601959698   1.0000000
N2   N   0.951655068294157   0.618833493485589   0.111004352727988   1.0000000
N2   N   0.951664947949143   0.761412826280547   0.110986796443617   1.0000000
N2   N   0.095202962929437   0.904798287938192   0.110977975177454   1.0000000
N2   N   0.095726883026855   0.048018807305942   0.110977837310942   1.0000000
N2   N   0.095574441287240   0.190641458357111   0.110980010682382   1.0000000
N2   N   0.095576051640637   0.333489802289417   0.110984140665916   1.0000000
N2   N   0.095727759137450   0.476280476481112   0.110973116613637   1.0000000
N2   N   0.095196326847683   0.618985141837675   0.111006170612937   1.0000000
N2   N   0.095027503765862   0.761804897700241   0.110966474406006   1.0000000
N2   N   0.238196807760097   0.904973888697060   0.110969722292431   1.0000000
N2   N   0.238588819782324   0.048336629393391   0.110979981984935   1.0000000
N2   N   0.239676145755726   0.192100504672480   0.111010647229233   1.0000000
N2   N   0.238516003779235   0.333542339458666   0.111003638715275   1.0000000
N2   N   0.239682419156206   0.476145829105309   0.111012520950437   1.0000000
N2   N   0.238592582164279   0.618826769756652   0.111006625217812   1.0000000
N2   N   0.238196589088027   0.761804901982900   0.110996003064490   1.0000000
N2   N   0.381017135332963   0.904805351990123   0.111011736678286   1.0000000
N2   N   0.381168612607288   0.048346648400527   0.110988546282070   1.0000000
N2   N   0.381796496383193   0.192168426600624   0.111034456670348   1.0000000
N2   N   0.384229251075323   0.337368949916369   0.111040564992805   1.0000000
N2   N   0.384237867575149   0.475432254339089   0.111053771467954   1.0000000
N2   N   0.381801392698798   0.618200832855555   0.111060129625928   1.0000000
N2   N   0.381175403310338   0.761409512013596   0.110997200555053   1.0000000
N2   N   0.523721661627994   0.904274243782675   0.110986090769234   1.0000000
N2   N   0.523714216175940   0.048024599104137   0.110977163504169   1.0000000
N2   N   0.523850480263668   0.192101922355490   0.110996431637804   1.0000000
N2   N   0.524573018813558   0.337363308388073   0.111019359714223   1.0000000
N2   N   0.524569479826113   0.615763346277746   0.111033856527019   1.0000000
N2   N   0.523856614069556   0.760319928600839   0.111014074201079   1.0000000
N2   N   0.666511996712410   0.904425670743177   0.110990224827393   1.0000000
N2   N   0.666510830453652   0.047541666175072   0.111005737282761   1.0000000
N2   N   0.666500812498713   0.190652119534915   0.111009710295878   1.0000000
N2   N   0.666459371478978   0.333542543938433   0.111014595138219   1.0000000
N2   N   0.662637919387836   0.475429123751932   0.111034293222041   1.0000000
N2   N   0.662632648780858   0.615772497117925   0.111037880698287   1.0000000
N2   N   0.666459707684652   0.761485910821143   0.110996977614614   1.0000000
N2   N   0.809360109957739   0.904427287441136   0.110983543832986   1.0000000
N2   N   0.809471448030827   0.047498036955721   0.111008703680749   1.0000000
N2   N   0.809466924982014   0.190534617683940   0.111017660273225   1.0000000
N2   N   0.809349159405602   0.333501131821606   0.111006144421438   1.0000000
N2   N   0.807899314245698   0.476151590228042   0.110995594654171   1.0000000
N2   N   0.807833115950953   0.618205343710404   0.111043247712649   1.0000000
N2   N   0.807900963824513   0.760325332242235   0.111010843015979   1.0000000


