data_1
_audit_creation_method   'vasp2cif'
_cell_length_a    17.52789999999977
_cell_length_b    17.52789999999977
_cell_length_c    15.0
_cell_angle_alpha    90.0
_cell_angle_beta    90.0
_cell_angle_gamma    119.99999999999916

_symmetry_space_group_name_H-M    'P 1'
loop_
_atom_site_label
_atom_site_type_symbol
_atom_site_fract_x
_atom_site_fract_y
_atom_site_fract_z
_atom_site_occupancy
B2   B   0.906288193988019   0.953860469275092   0.110978422641963   1.0000000
B2   B   0.904541680066977   0.095460341129069   0.110878331900366   1.0000000
B2   B   0.904075221648505   0.237830862460847   0.110967938932824   1.0000000
B2   B   0.904840006514064   0.380791408777228   0.110864170901181   1.0000000
B2   B   0.907511046365777   0.524393372043633   0.110893672036042   1.0000000
B2   B   0.907686075265524   0.668117898935137   0.111100439305581   1.0000000
B2   B   0.908150467382391   0.812030626788740   0.111184052470719   1.0000000
B2   B   0.047970999563511   0.952031021632486   0.111037070457684   1.0000000
B2   B   0.046141551920968   0.093713827208021   0.110978422641963   1.0000000
B2   B   0.045208269124302   0.236581703975787   0.111092341382907   1.0000000
B2   B   0.045449262613474   0.380324315962881   0.111135466406701   1.0000000
B2   B   0.046912017355559   0.524130084515285   0.110956960219852   1.0000000
B2   B   0.048658289756240   0.667228505914913   0.110989008233155   1.0000000
B2   B   0.048805419452762   0.809871520437177   0.111079544677374   1.0000000
B2   B   0.190130500758833   0.951196601743192   0.111079544677374   1.0000000
B2   B   0.187971394407299   0.091851553813633   0.111184052470719   1.0000000
B2   B   0.185408208349386   0.233333493192923   0.111427781163229   1.0000000
B2   B   0.185116625700132   0.378410585205664   0.111685914304466   1.0000000
B2   B   0.185874732367040   0.523897571022673   0.111586832963489   1.0000000
B2   B   0.190196928628048   0.667139017022244   0.111110977098633   1.0000000
B2   B   0.190584724477553   0.809417296718486   0.110965148229603   1.0000000
B2   B   0.332773515282128   0.951343731439771   0.110989008233155   1.0000000
B2   B   0.331884122261890   0.092315945930501   0.111100439305581   1.0000000
B2   B   0.327257647640565   0.230784584834488   0.111080412384901   1.0000000
B2   B   0.323109609548332   0.372591498347347   0.110621527871274   1.0000000
B2   B   0.322070811741625   0.522253398475335   0.110937385254637   1.0000000
B2   B   0.332448644478099   0.667553376718892   0.111425274019908   1.0000000
B2   B   0.332863004174797   0.809805092567977   0.111110977098633   1.0000000
B2   B   0.475871936681713   0.953090003840380   0.110956960219852   1.0000000
B2   B   0.475608649153323   0.092490974830206   0.110893672036042   1.0000000
B2   B   0.475207211759574   0.230598042308841   0.111029349670424   1.0000000
B2   B   0.465176398571366   0.357335997880973   0.110843376562606   1.0000000
B2   B   0.477748622721648   0.677931209455373   0.110937385254637   1.0000000
B2   B   0.476104450174326   0.814127288828992   0.111586832963489   1.0000000
B2   B   0.619677705233109   0.954552758582572   0.111135466406701   1.0000000
B2   B   0.619210612418797   0.095162014681947   0.110864170901181   1.0000000
B2   B   0.619608498456486   0.236273319707578   0.110861657671485   1.0000000
B2   B   0.621556571731603   0.378445449464429   0.111066582422758   1.0000000
B2   B   0.642666023315009   0.534825622625604   0.110843376562606   1.0000000
B2   B   0.627410522848663   0.676892411648694   0.110621527871274   1.0000000
B2   B   0.621591435990275   0.814885395495828   0.111685914304466   1.0000000
B2   B   0.763420317220216   0.954793752071659   0.111092341382907   1.0000000
B2   B   0.762171158735157   0.095926799547499   0.110967938932824   1.0000000
B2   B   0.762238631093538   0.237763390102444   0.110934045230003   1.0000000
B2   B   0.763728701488397   0.380393522739560   0.110861657671485   1.0000000
B2   B   0.769403978887176   0.524794809437424   0.111029349670424   1.0000000
B2   B   0.769217436361529   0.672744373556377   0.111080412384901   1.0000000
B2   B   0.766668528003088   0.814593812846624   0.111427781163229   1.0000000
N2   N   0.953858569336830   0.906222555578012   0.111031423389264   1.0000000
N2   N   0.952064919125725   0.047936482792267   0.110815831143682   1.0000000
N2   N   0.951022107235225   0.189967840545712   0.110905052048395   1.0000000
N2   N   0.951219249614113   0.332681985764964   0.110928912229355   1.0000000
N2   N   0.952950881837040   0.475924958897934   0.110821752975078   1.0000000
N2   N   0.954175279803685   0.619608309897792   0.110987920824193   1.0000000
N2   N   0.954412508961518   0.763127273955313   0.111133298327886   1.0000000
N2   N   0.095512905955467   0.904488495962546   0.111057178584737   1.0000000
N2   N   0.093778846340008   0.046142832581161   0.111031423389264   1.0000000
N2   N   0.091685832878525   0.187921453408634   0.111136253822096   1.0000000
N2   N   0.091379850511508   0.331448056778711   0.111290737518914   1.0000000
N2   N   0.092206713848888   0.475551772350784   0.111161044682049   1.0000000
N2   N   0.095367296658843   0.619250073037755   0.110956982047362   1.0000000
N2   N   0.095927113125121   0.762100472522292   0.110983589088114   1.0000000
N2   N   0.237900929395735   0.904074288792934   0.110983589088114   1.0000000
N2   N   0.236874127962707   0.045588892956488   0.111133298327886   1.0000000
N2   N   0.233241612086182   0.185645768558928   0.111273787622686   1.0000000
N2   N   0.229894586854293   0.327461703396224   0.111648474049574   1.0000000
N2   N   0.229370763107177   0.474239240905710   0.111963758960847   1.0000000
N2   N   0.237030776276150   0.619311073467777   0.111371033544337   1.0000000
N2   N   0.237968436848114   0.762032965069878   0.110974062390568   1.0000000
N2   N   0.380751328880272   0.904634105259099   0.110956982047362   1.0000000
N2   N   0.380393092020178   0.045826122114335   0.110987920824193   1.0000000
N2   N   0.379009330013176   0.186481402179112   0.111068320154636   1.0000000
N2   N   0.371839614878162   0.324167692697543   0.110731422043486   1.0000000
N2   N   0.355865812403117   0.465036522777268   0.109252124797202   1.0000000
N2   N   0.380128025833535   0.619873376084485   0.111174444193928   1.0000000
N2   N   0.380690328450115   0.762970625641891   0.111371033544337   1.0000000
N2   N   0.524449629566213   0.907794688069131   0.111161044682049   1.0000000
N2   N   0.524076443019020   0.047050520080994   0.110821752975078   1.0000000
N2   N   0.524213348240920   0.186240977868238   0.110867309015852   1.0000000
N2   N   0.524416582266902   0.323540593843965   0.111108385639227   1.0000000
N2   N   0.534964879139707   0.644135589514903   0.109252124797209   1.0000000
N2   N   0.525762161011286   0.770630638810829   0.111963758960847   1.0000000
N2   N   0.668553345138257   0.908621551406533   0.111290737518914   1.0000000
N2   N   0.667319416152012   0.048782152303865   0.110928912229355   1.0000000
N2   N   0.667349711002764   0.189766014679321   0.110857188239414   1.0000000
N2   N   0.668538193018144   0.331463208898867   0.110883470514423   1.0000000
N2   N   0.676460808073038   0.475584819650116   0.111108385639227   1.0000000
N2   N   0.675833709219447   0.628161787039858   0.110731422043486   1.0000000
N2   N   0.672539698520836   0.770106815063706   0.111648474049574   1.0000000
N2   N   0.812079948509357   0.908315569039480   0.111136253822096   1.0000000
N2   N   0.810033561372322   0.048979294682802   0.110905052048395   1.0000000
N2   N   0.809511563583996   0.190489838333988   0.110981230522064   1.0000000
N2   N   0.810235387238656   0.332651690914211   0.110857188239422   1.0000000
N2   N   0.813760424049754   0.475788053676062   0.110867309015852   1.0000000
N2   N   0.813519999738865   0.620992071904794   0.111068320154636   1.0000000
N2   N   0.814355633359064   0.766759789831809   0.111273787622679   1.0000000
As2   As   0.468546719846564   0.531455301350370   0.109574542990252   1.0000000
P2   P   0.532825502305656   0.467175899611320   0.110380781053180   1.0000000


