data_1
_audit_creation_method   'vasp2cif'
_cell_length_a    17.52789999999977
_cell_length_b    17.52789999999977
_cell_length_c    15.0
_cell_angle_alpha    90.0
_cell_angle_beta    90.0
_cell_angle_gamma    119.99999999999916

_symmetry_space_group_name_H-M    'P 1'
loop_
_atom_site_label
_atom_site_type_symbol
_atom_site_fract_x
_atom_site_fract_y
_atom_site_fract_z
_atom_site_occupancy
B2   B   0.904960749733787   0.952327909934254   0.107481526810723   1.0000000
B2   B   0.904897420519969   0.095104600676009   0.108533699744876   1.0000000
B2   B   0.904883048501675   0.237935730344018   0.109729950790440   1.0000000
B2   B   0.904967570633067   0.380834951431169   0.110247403944781   1.0000000
B2   B   0.905068206284389   0.523738501126514   0.110206919033111   1.0000000
B2   B   0.904687413802178   0.666531345013295   0.109308118697411   1.0000000
B2   B   0.904469560574480   0.809086469991019   0.108491622232153   1.0000000
B2   B   0.047676004613190   0.952326016582823   0.109163357359130   1.0000000
B2   B   0.047674111261749   0.095041271462178   0.107481526810723   1.0000000
B2   B   0.047552750732804   0.237840578452819   0.106709187741857   1.0000000
B2   B   0.047505823999356   0.380851304948697   0.107450146788599   1.0000000
B2   B   0.047508803627153   0.523828661115328   0.108823444036201   1.0000000
B2   B   0.047635939169131   0.666678049745494   0.110232936101487   1.0000000
B2   B   0.047598051159747   0.809489519257769   0.110362830376726   1.0000000
B2   B   0.190512501938228   0.952403970036285   0.110362830376726   1.0000000
B2   B   0.190915551204991   0.095532460621524   0.108491622232153   1.0000000
B2   B   0.190218584108838   0.237646632774962   0.105277958708100   1.0000000
B2   B   0.189945503173553   0.380625962228535   0.107209605960235   1.0000000
B2   B   0.189797034090709   0.523905182065193   0.107925238048411   1.0000000
B2   B   0.190491836298580   0.666748585063602   0.109709199575326   1.0000000
B2   B   0.190439780463864   0.809562240732127   0.110699627087345   1.0000000
B2   B   0.333323971451500   0.952366082026875   0.110232936101487   1.0000000
B2   B   0.333470676183687   0.095314607393796   0.109308118697411   1.0000000
B2   B   0.334415782623282   0.239128844282585   0.108080380339234   1.0000000
B2   B   0.331609208664783   0.379609698323205   0.119461083548261   1.0000000
B2   B   0.330154050196181   0.522785961185355   0.126353047681684   1.0000000
B2   B   0.333430247193765   0.666571774003247   0.113813680485352   1.0000000
B2   B   0.333253436133408   0.809510184897418   0.109709199575326   1.0000000
B2   B   0.476173360081648   0.952493217568846   0.108823444036201   1.0000000
B2   B   0.476263520070478   0.094933814911596   0.110206919033111   1.0000000
B2   B   0.476455035848889   0.237317339111412   0.108292624414952   1.0000000
B2   B   0.478340679540971   0.380710775133042   0.102358211628186   1.0000000
B2   B   0.477216060011638   0.669847971000828   0.126353047681684   1.0000000
B2   B   0.476096839131789   0.810204987105293   0.107925238048411   1.0000000
B2   B   0.619150716247341   0.952496197196612   0.107450146788599   1.0000000
B2   B   0.619167069764838   0.095034450562938   0.110247403944781   1.0000000
B2   B   0.619351112473598   0.237592173568292   0.110202109607554   1.0000000
B2   B   0.619859841195022   0.380142180000961   0.106257637478401   1.0000000
B2   B   0.619291246062999   0.521661341656048   0.102358211628186   1.0000000
B2   B   0.620392322872774   0.668392812532205   0.119461083548261   1.0000000
B2   B   0.619376058967481   0.810056518022448   0.107209605960235   1.0000000
B2   B   0.762161442743217   0.952449270463180   0.106709187741857   1.0000000
B2   B   0.762066290851950   0.095118972694333   0.109729950790440   1.0000000
B2   B   0.762149708014337   0.237852313181699   0.111085529586782   1.0000000
B2   B   0.762409847627739   0.380650908722390   0.110202109607554   1.0000000
B2   B   0.762684682084571   0.523546985348125   0.108292624414952   1.0000000
B2   B   0.760873176913413   0.665586238573718   0.108080380339234   1.0000000
B2   B   0.762355388421035   0.809783437087165   0.105277958708093   1.0000000
N2   N   0.952336314671007   0.904475637790331   0.108430564200766   1.0000000
N2   N   0.952517173859412   0.047484228058578   0.108133361128636   1.0000000
N2   N   0.952405658926743   0.190277282514798   0.108631526319531   1.0000000
N2   N   0.952371181703322   0.333140841014981   0.109372625740977   1.0000000
N2   N   0.952407738630613   0.476060308893255   0.109987038092529   1.0000000
N2   N   0.952347516875166   0.618949231832290   0.110059662506623   1.0000000
N2   N   0.952284093421915   0.761703934728537   0.109608292364290   1.0000000
N2   N   0.095273658614268   0.904727743303735   0.110280617144700   1.0000000
N2   N   0.095525764127659   0.047665087246993   0.108430564200766   1.0000000
N2   N   0.095091892446164   0.190107673346241   0.105743293945130   1.0000000
N2   N   0.094876494120332   0.333025470026946   0.106202196367591   1.0000000
N2   N   0.094762097270785   0.476094326502606   0.107108455531030   1.0000000
N2   N   0.095196708042963   0.619065571998516   0.109526975489645   1.0000000
N2   N   0.095196633413343   0.761901802700052   0.110738551652004   1.0000000
N2   N   0.238099599217968   0.904804768504660   0.110738551652004   1.0000000
N2   N   0.238297467189465   0.047717308496080   0.109608292364290   1.0000000
N2   N   0.238845591779882   0.190934170540717   0.107396412114709   1.0000000
N2   N   0.237225173906583   0.332437787960138   0.106102918335211   1.0000000
N2   N   0.236711569253285   0.476014417101595   0.109161057248907   1.0000000
N2   N   0.238062896586642   0.619133860760699   0.109901528747838   1.0000000
N2   N   0.238026433496787   0.761974968421226   0.110346035189838   1.0000000
N2   N   0.380935829919478   0.904804693875062   0.109526975489645   1.0000000
N2   N   0.381052170085747   0.047653885042836   0.110059662506623   1.0000000
N2   N   0.381351626030578   0.190686473474806   0.108100665658111   1.0000000
N2   N   0.382852934841226   0.335151171733451   0.109864963063720   1.0000000
N2   N   0.370465882154064   0.470152924499787   0.143867430766885   1.0000000
N2   N   0.380941964469409   0.619059437448596   0.123882223702801   1.0000000
N2   N   0.380867541157290   0.761938505331359   0.109901528747838   1.0000000
N2   N   0.523907075414383   0.905239304647211   0.107108455531030   1.0000000
N2   N   0.523941093023755   0.047593663287423   0.109987038092529   1.0000000
N2   N   0.524116726245214   0.190040130330463   0.110029204836274   1.0000000
N2   N   0.524561600239090   0.332324017258405   0.105509695703085   1.0000000
N2   N   0.529848477417228   0.629535519763927   0.143867430766885   1.0000000
N2   N   0.523986984815362   0.763289832664708   0.109161057248907   1.0000000
N2   N   0.666975931890030   0.905124907797695   0.106202196367591   1.0000000
N2   N   0.666860560902032   0.047630220214719   0.109372625740977   1.0000000
N2   N   0.666936496611131   0.190195173132879   0.111016679179244   1.0000000
N2   N   0.667224117446214   0.332777284470745   0.109209028299160   1.0000000
N2   N   0.667677384658593   0.475439801677874   0.105509695703085   1.0000000
N2   N   0.664850230183533   0.617148467076795   0.109864963063720   1.0000000
N2   N   0.667563613956912   0.762776228011411   0.106102918335211   1.0000000
N2   N   0.809893728571682   0.904909509471833   0.105743293945130   1.0000000
N2   N   0.809724119403221   0.047595742991229   0.108631526319531   1.0000000
N2   N   0.809698037545078   0.190303364372908   0.110760822153500   1.0000000
N2   N   0.809806228785123   0.333064905305885   0.111016679179244   1.0000000
N2   N   0.809961271587529   0.475884675671792   0.110029204836274   1.0000000
N2   N   0.809314928443174   0.618649775887443   0.108100665658111   1.0000000
N2   N   0.809067231377247   0.761155810138114   0.107396412114709   1.0000000
Ge2   Ge   0.468447300241762   0.531554720955225   0.214899435331838   1.0000000
O2   O   0.528493104058734   0.471508297858248   0.092348377448634   1.0000000


