data_1
_audit_creation_method   'vasp2cif'
_cell_length_a    17.52789999999977
_cell_length_b    17.52789999999977
_cell_length_c    15.0
_cell_angle_alpha    90.0
_cell_angle_beta    90.0
_cell_angle_gamma    119.99999999999916

_symmetry_space_group_name_H-M    'P 1'
loop_
_atom_site_label
_atom_site_type_symbol
_atom_site_fract_x
_atom_site_fract_y
_atom_site_fract_z
_atom_site_occupancy
B2   B   0.905776353977894   0.950651876163571   0.110741756068555   1.0000000
B2   B   0.908088612885336   0.094659316127292   0.110771997230935   1.0000000
B2   B   0.908860650103547   0.237757353594013   0.110739366226164   1.0000000
B2   B   0.908710534463410   0.380743889511866   0.110709805180699   1.0000000
B2   B   0.906753658950221   0.523490842139868   0.110748599222020   1.0000000
B2   B   0.903653873564672   0.665442728598094   0.110748859159879   1.0000000
B2   B   0.903547602298784   0.807044620357467   0.110700809416919   1.0000000
B2   B   0.049798970298258   0.953398302377411   0.110698640196725   1.0000000
B2   B   0.051753806123297   0.096717630836489   0.110775542798481   1.0000000
B2   B   0.052480436508673   0.239227403815438   0.110808707648312   1.0000000
B2   B   0.051758718717317   0.381702993351430   0.110775948425817   1.0000000
B2   B   0.049830257569653   0.524551018917914   0.110733613404608   1.0000000
B2   B   0.048232347817490   0.667308482809182   0.110743391705992   1.0000000
B2   B   0.048290365169638   0.810041610246021   0.110714588288362   1.0000000
B2   B   0.192965342116507   0.954715934856792   0.110691483352633   1.0000000
B2   B   0.196200939785437   0.099746033903460   0.110711829988264   1.0000000
B2   B   0.197871565870272   0.242703583126068   0.110779391335003   1.0000000
B2   B   0.196087439341663   0.383499405943234   0.110759411093702   1.0000000
B2   B   0.192622130348319   0.525663017318140   0.110741057450277   1.0000000
B2   B   0.191399276754626   0.668399655427761   0.110738602750764   1.0000000
B2   B   0.191677534879041   0.811270901335814   0.110718384643727   1.0000000
B2   B   0.335637326610312   0.954639150336240   0.110717377753015   1.0000000
B2   B   0.337536192843912   0.098695035665655   0.110728960343681   1.0000000
B2   B   0.344098754081820   0.247194508810385   0.110754574815055   1.0000000
B2   B   0.344455058413110   0.388192129915658   0.110760074273594   1.0000000
B2   B   0.335376060630280   0.528928669788062   0.110674137810534   1.0000000
B2   B   0.333910423952870   0.669708040035876   0.110754030206084   1.0000000
B2   B   0.334543600549415   0.811783870104134   0.110757994571684   1.0000000
B2   B   0.478466692706376   0.953351842071083   0.110753530304422   1.0000000
B2   B   0.479631945984255   0.095947453575955   0.110772966664565   1.0000000
B2   B   0.481624263921783   0.239269690665295   0.110783439379707   1.0000000
B2   B   0.498136290155272   0.394351174346647   0.110730703441410   1.0000000
B2   B   0.475733515198703   0.669327977323974   0.110642873894183   1.0000000
B2   B   0.477275655592530   0.811097488487224   0.110735461367455   1.0000000
B2   B   0.621279688987760   0.951055256171605   0.110736950898128   1.0000000
B2   B   0.622383521268723   0.094218959915253   0.110756962484095   1.0000000
B2   B   0.623278797070259   0.236633444213837   0.110765064042773   1.0000000
B2   B   0.624637060929608   0.377953357633183   0.110758702041380   1.0000000
B2   B   0.604142303916455   0.501544454805222   0.110718187735655   1.0000000
B2   B   0.618886693327645   0.806545810674225   0.110722431082326   1.0000000
B2   B   0.763619263041001   0.950288998123652   0.110747906654007   1.0000000
B2   B   0.765204951325339   0.094022840604729   0.110748511585796   1.0000000
B2   B   0.765975662628850   0.237102451298755   0.110717703989301   1.0000000
B2   B   0.766338191370720   0.379933677414604   0.110723060349188   1.0000000
B2   B   0.762904503844940   0.521744185507589   0.110743175479167   1.0000000
B2   B   0.754742270989171   0.659544426307432   0.110669134529976   1.0000000
B2   B   0.760013875800871   0.804260016161817   0.110726545988034   1.0000000
C2   C   0.614070265800323   0.659560899968320   0.110788131715026   1.0000000
N2   N   0.953192887638956   0.903413011622131   0.110691231941522   1.0000000
N2   N   0.955245840139733   0.046856702822143   0.110759055529157   1.0000000
N2   N   0.956650262831694   0.190327139063327   0.110757797185545   1.0000000
N2   N   0.956588402220830   0.333257289590021   0.110725557474867   1.0000000
N2   N   0.955035886366665   0.476220707047576   0.110708570895969   1.0000000
N2   N   0.952878156052966   0.618943538893334   0.110744305924700   1.0000000
N2   N   0.952450959559978   0.761109657156887   0.110703754407095   1.0000000
N2   N   0.097129407930479   0.905839401887628   0.110674590697438   1.0000000
N2   N   0.099515244117991   0.049702505437758   0.110710998635909   1.0000000
N2   N   0.101132688760040   0.192851918000652   0.110779797458490   1.0000000
N2   N   0.100421405094338   0.334848707553500   0.110781008939007   1.0000000
N2   N   0.097932321898773   0.477191846181977   0.110743809494400   1.0000000
N2   N   0.096415192001871   0.620012611774627   0.110715511663123   1.0000000
N2   N   0.096238921626141   0.762831339902911   0.110713038365197   1.0000000
N2   N   0.240124782704838   0.906692688092299   0.110688615565422   1.0000000
N2   N   0.241912247807641   0.050461817799681   0.110681354646204   1.0000000
N2   N   0.246484101699248   0.196532573309643   0.110728940489588   1.0000000
N2   N   0.247139053106199   0.339103240290357   0.110744520619426   1.0000000
N2   N   0.241258446956877   0.478909918000812   0.110689796687579   1.0000000
N2   N   0.239301768964367   0.621005088144966   0.110734349006568   1.0000000
N2   N   0.239332058660806   0.763684505164306   0.110724212427177   1.0000000
N2   N   0.383055999246131   0.906643781318468   0.110727257088532   1.0000000
N2   N   0.384142283829656   0.049679827814951   0.110725168888846   1.0000000
N2   N   0.386456875096524   0.194178981248798   0.110735814247934   1.0000000
N2   N   0.396495600229940   0.345707153051410   0.110740599221164   1.0000000
N2   N   0.387609702326387   0.486272456948428   0.110707800369018   1.0000000
N2   N   0.381852593240276   0.622803751185976   0.110687335728491   1.0000000
N2   N   0.382194311269766   0.764314305628230   0.110745011094546   1.0000000
N2   N   0.525997709047007   0.905431414219257   0.110736183644722   1.0000000
N2   N   0.526991235310778   0.047845175272339   0.110748151976455   1.0000000
N2   N   0.528171819626317   0.190310285713036   0.110772683413761   1.0000000
N2   N   0.530742054941309   0.332843484977194   0.110754357216446   1.0000000
N2   N   0.476846624901778   0.529880002971563   0.111106370661795   1.0000000
N2   N   0.521028209344548   0.619887371049082   0.110676414236020   1.0000000
N2   N   0.524460892326247   0.763084999744250   0.110669050866176   1.0000000
N2   N   0.668101354630709   0.901777274652769   0.110721366686623   1.0000000
N2   N   0.669756805404374   0.046057038006350   0.110730851840701   1.0000000
N2   N   0.670794521700931   0.188995271001410   0.110731689127333   1.0000000
N2   N   0.672019090717834   0.331211808274323   0.110728711599741   1.0000000
N2   N   0.668627574854521   0.473045458508481   0.110721310552075   1.0000000
N2   N   0.656508348029013   0.610019586371910   0.110639216756223   1.0000000
N2   N   0.662055012999373   0.752859752994138   0.110713754039965   1.0000000
N2   N   0.808960098942888   0.900624328865757   0.110725021096463   1.0000000
N2   N   0.812294363453698   0.045829687250059   0.110736695806310   1.0000000
N2   N   0.813486056651216   0.189342054497435   0.110717743697705   1.0000000
N2   N   0.813925825774130   0.332405038978977   0.110685864209970   1.0000000
N2   N   0.812082982270424   0.475249529957699   0.110726569921261   1.0000000
N2   N   0.807675394723468   0.616768220721817   0.110707400900450   1.0000000
N2   N   0.806674356394986   0.756905339465638   0.110688538276772   1.0000000


