data_1
_audit_creation_method   'vasp2cif'
_cell_length_a    17.52789999999977
_cell_length_b    17.52789999999977
_cell_length_c    15.0
_cell_angle_alpha    90.0
_cell_angle_beta    90.0
_cell_angle_gamma    119.99999999999916

_symmetry_space_group_name_H-M    'P 1'
loop_
_atom_site_label
_atom_site_type_symbol
_atom_site_fract_x
_atom_site_fract_y
_atom_site_fract_z
_atom_site_occupancy
B2   B   0.904664541928265   0.952276518400750   0.111025651248742   1.0000000
B2   B   0.904821801856535   0.095179944835465   0.111042588689528   1.0000000
B2   B   0.904801132158583   0.238093549846298   0.111040815068758   1.0000000
B2   B   0.904698792134945   0.380945188456046   0.111017218578938   1.0000000
B2   B   0.904523354637706   0.523722569613878   0.111014832211008   1.0000000
B2   B   0.904597670286981   0.666603185181502   0.111039771661383   1.0000000
B2   B   0.904654868514261   0.809548271750558   0.111040446225354   1.0000000
B2   B   0.047558528415108   0.952443194949887   0.111023623960891   1.0000000
B2   B   0.047725196941251   0.095337178543742   0.111025650775741   1.0000000
B2   B   0.047774255109938   0.238142953333841   0.111017416858454   1.0000000
B2   B   0.047740080269291   0.380939181012472   0.111029950170700   1.0000000
B2   B   0.047686974966389   0.523740278591911   0.111020699996506   1.0000000
B2   B   0.047554594982102   0.666620777757953   0.111028551995842   1.0000000
B2   B   0.047560103212644   0.809569736365985   0.111015885864061   1.0000000
B2   B   0.190432013327014   0.952441659880359   0.111015884338064   1.0000000
B2   B   0.190453429285441   0.095346844193745   0.111040442101356   1.0000000
B2   B   0.190920075437437   0.238572442438236   0.111027987089080   1.0000000
B2   B   0.190748701576014   0.381043224305946   0.111015629535096   1.0000000
B2   B   0.190943251055350   0.523724098207139   0.111038497375048   1.0000000
B2   B   0.190501900999973   0.666581368217739   0.111046264744254   1.0000000
B2   B   0.190468803044401   0.809532891496597   0.111014253127656   1.0000000
B2   B   0.333380957947045   0.952447128851909   0.111028554409840   1.0000000
B2   B   0.333398528795497   0.095404069633021   0.111039767284383   1.0000000
B2   B   0.333431146325439   0.238307681733231   0.111053415550103   1.0000000
B2   B   0.334342649226101   0.381769416182865   0.111019383957484   1.0000000
B2   B   0.334361799575156   0.523931974637094   0.111029970576905   1.0000000
B2   B   0.333452618100357   0.666549084673643   0.111043844876493   1.0000000
B2   B   0.333420285102259   0.809499727843021   0.111046268277257   1.0000000
B2   B   0.476261408827090   0.952314605963615   0.111020705307508   1.0000000
B2   B   0.476279171892120   0.095478468038291   0.111014840904008   1.0000000
B2   B   0.476299278267283   0.238682374415694   0.111039276952931   1.0000000
B2   B   0.476082940495600   0.381797060146575   0.111039793871532   1.0000000
B2   B   0.476069809795903   0.665640057764847   0.111029971090911   1.0000000
B2   B   0.476277617582860   0.809058436012650   0.111038503112048   1.0000000
B2   B   0.619062557959530   0.952261604147709   0.111029952277701   1.0000000
B2   B   0.619056481891953   0.095302895147056   0.111017219664938   1.0000000
B2   B   0.619046887214010   0.238276079984613   0.111021808618843   1.0000000
B2   B   0.618927788223249   0.381073945985751   0.111026007369909   1.0000000
B2   B   0.618204508823424   0.523918726707402   0.111039788613530   1.0000000
B2   B   0.618232233272129   0.665659074489896   0.111019383670482   1.0000000
B2   B   0.618958518854052   0.809253067826985   0.111015625187093   1.0000000
B2   B   0.761858787194158   0.952227464417061   0.111017419084450   1.0000000
B2   B   0.761908145914702   0.095200544375415   0.111040817471757   1.0000000
B2   B   0.761848356807506   0.238153348372491   0.111052738078272   1.0000000
B2   B   0.761725742399387   0.380954868216990   0.111021800211844   1.0000000
B2   B   0.761319377760304   0.523702404539720   0.111039268988934   1.0000000
B2   B   0.761693977037767   0.666570534219559   0.111053424178102   1.0000000
B2   B   0.761429228985766   0.809081641244563   0.111027989563076   1.0000000
C2   C   0.476208657365786   0.523792998181210   0.111086722283365   1.0000000
N2   N   0.952292185006080   0.904710210259164   0.111015914849842   1.0000000
N2   N   0.952392236715210   0.047609480594789   0.111012951880086   1.0000000
N2   N   0.952491249411606   0.190533089639392   0.111013582284698   1.0000000
N2   N   0.952506416265010   0.333413208292646   0.111015365089277   1.0000000
N2   N   0.952435727745683   0.476231707134997   0.110986975032191   1.0000000
N2   N   0.952327673175170   0.619011360507708   0.111013639920858   1.0000000
N2   N   0.952291017919140   0.761849420378961   0.111013457540917   1.0000000
N2   N   0.095235678495257   0.904766073972745   0.110976229127208   1.0000000
N2   N   0.095291495178838   0.047709533808920   0.111015921346838   1.0000000
N2   N   0.095613972671236   0.190830105978199   0.110987015539507   1.0000000
N2   N   0.095508885153077   0.333487589639945   0.111004942420381   1.0000000
N2   N   0.095623261824951   0.476240143131861   0.111010501860674   1.0000000
N2   N   0.095304649669015   0.619007602838744   0.111015649561278   1.0000000
N2   N   0.095248655905157   0.761868437751317   0.111001546743280   1.0000000
N2   N   0.238133274409685   0.904753054852842   0.111001547635282   1.0000000
N2   N   0.238152308998044   0.047710751044858   0.111013450117919   1.0000000
N2   N   0.238233560387207   0.190714706660353   0.111018672047914   1.0000000
N2   N   0.238975228813759   0.334238634365158   0.111005835679385   1.0000000
N2   N   0.238966791831172   0.476210120758924   0.111012643138872   1.0000000
N2   N   0.238228084203957   0.618969941349935   0.111024028719074   1.0000000
N2   N   0.238157639570775   0.761843994624220   0.111013652766183   1.0000000
N2   N   0.380994068264256   0.904696976113984   0.111015653711281   1.0000000
N2   N   0.380990366679290   0.047674077744830   0.111013647668857   1.0000000
N2   N   0.381024304591807   0.190688781988260   0.111024466402212   1.0000000
N2   N   0.381013645961878   0.333506144403204   0.111028640600397   1.0000000
N2   N   0.383479326335213   0.477489793732346   0.110980702594747   1.0000000
N2   N   0.381007781719925   0.618994016239076   0.111024729970807   1.0000000
N2   N   0.381031797139062   0.761773622676042   0.111024033340075   1.0000000
N2   N   0.523761589096139   0.904378333691046   0.111010515638673   1.0000000
N2   N   0.523769951214002   0.047565934014320   0.110986975477197   1.0000000
N2   N   0.523763152302765   0.190776966692543   0.110993584989292   1.0000000
N2   N   0.523791325133810   0.334201767395661   0.111008093416030   1.0000000
N2   N   0.522550549883811   0.477451046741193   0.110988157646267   1.0000000
N2   N   0.522511865550655   0.616522355803787   0.110980704172749   1.0000000
N2   N   0.523791661854081   0.761035064496825   0.111012640322870   1.0000000
N2   N   0.666514200972052   0.904492862319923   0.111004940207381   1.0000000
N2   N   0.666588461438353   0.047495237983994   0.111015363621281   1.0000000
N2   N   0.666605497222419   0.190487019471504   0.111005117763355   1.0000000
N2   N   0.666547555445742   0.333454255103259   0.111023021509487   1.0000000
N2   N   0.665799896736339   0.476210390876187   0.111008073017030   1.0000000
N2   N   0.666495486240797   0.618988048583120   0.111028643235395   1.0000000
N2   N   0.665763032088838   0.761026528654240   0.111005828548385   1.0000000
N2   N   0.809171606537804   0.904387742362767   0.110987015915512   1.0000000
N2   N   0.809468635637610   0.047510459661391   0.111013591971698   1.0000000
N2   N   0.809529044807974   0.190472609884026   0.111024170506405   1.0000000
N2   N   0.809514718636493   0.333396187938584   0.111005111823360   1.0000000
N2   N   0.809224924862458   0.476238602147239   0.110993564478289   1.0000000
N2   N   0.809312939378739   0.618977399455194   0.111024481755214   1.0000000
N2   N   0.809286955433647   0.761768131396793   0.111018683343909   1.0000000


