data_1
_audit_creation_method   'vasp2cif'
_cell_length_a    17.52789999999977
_cell_length_b    17.52789999999977
_cell_length_c    15.0
_cell_angle_alpha    90.0
_cell_angle_beta    90.0
_cell_angle_gamma    119.99999999999916

_symmetry_space_group_name_H-M    'P 1'
loop_
_atom_site_label
_atom_site_type_symbol
_atom_site_fract_x
_atom_site_fract_y
_atom_site_fract_z
_atom_site_occupancy
B2   B   0.904947475307899   0.953537791525487   0.109183126170313   1.0000000
B2   B   0.904049314453075   0.095952706742856   0.108744006693375   1.0000000
B2   B   0.903766802952962   0.238741330582966   0.109557323479511   1.0000000
B2   B   0.903975976887542   0.381624253300531   0.110596730374788   1.0000000
B2   B   0.904457916767058   0.524532246164773   0.111438802533474   1.0000000
B2   B   0.905041738240785   0.667489962876646   0.112142447140516   1.0000000
B2   B   0.905168656893514   0.810541722979937   0.111172839787074   1.0000000
B2   B   0.047358916189784   0.952643105006256   0.107932722331440   1.0000000
B2   B   0.046464229670470   0.095054545888095   0.109183126170313   1.0000000
B2   B   0.046112119536131   0.238082536879818   0.110841932376017   1.0000000
B2   B   0.046393018206928   0.381243042029161   0.110770159815423   1.0000000
B2   B   0.047081825454769   0.524197610314353   0.110233441834944   1.0000000
B2   B   0.047660231068116   0.667049166030302   0.109407313274517   1.0000000
B2   B   0.047662230420768   0.809881350768085   0.108414407962878   1.0000000
B2   B   0.190120670427931   0.952339790775212   0.108414407962878   1.0000000
B2   B   0.189460298216094   0.094833364302475   0.111172839787074   1.0000000
B2   B   0.187587172292626   0.236392341448476   0.115617776845781   1.0000000
B2   B   0.188254347412674   0.380355604739502   0.114809345691278   1.0000000
B2   B   0.189674503301753   0.523713696532107   0.111917986875180   1.0000000
B2   B   0.190579199743799   0.666693094092839   0.109983568358442   1.0000000
B2   B   0.190434881324521   0.809567139871492   0.108513621767611   1.0000000
B2   B   0.332952855166682   0.952341790127959   0.109407313274517   1.0000000
B2   B   0.332512058320391   0.094960282955263   0.112142447140516   1.0000000
B2   B   0.331422309257251   0.236985297612819   0.119374604954313   1.0000000
B2   B   0.327640651016792   0.377932156516500   0.120229426794106   1.0000000
B2   B   0.332197195345799   0.522156416595938   0.112789960899746   1.0000000
B2   B   0.333842538917877   0.666159482279172   0.111189105373363   1.0000000
B2   B   0.333308927104128   0.809422821452213   0.109983568358442   1.0000000
B2   B   0.475804410882630   0.952920195741240   0.110233441834944   1.0000000
B2   B   0.475469775032257   0.095544104428941   0.111438802533474   1.0000000
B2   B   0.474893269737987   0.237751657716857   0.115982096951483   1.0000000
B2   B   0.473497301055645   0.379027692906670   0.125177488541809   1.0000000
B2   B   0.477845604601076   0.667804825851159   0.112789960899746   1.0000000
B2   B   0.476288324664910   0.810327517894242   0.111917986875180   1.0000000
B2   B   0.618758979166884   0.953609002989087   0.110770159815423   1.0000000
B2   B   0.618377767895489   0.096026044308442   0.110596730374788   1.0000000
B2   B   0.618313182139468   0.238620248543115   0.113842776021564   1.0000000
B2   B   0.618824574548669   0.381177446647339   0.118187106216602   1.0000000
B2   B   0.620974328289349   0.526504720141385   0.125177488541809   1.0000000
B2   B   0.622069864679525   0.672361370180162   0.120229426794106   1.0000000
B2   B   0.619646416456468   0.811747673783366   0.114809345691278   1.0000000
B2   B   0.761919484316134   0.953889901659870   0.110841932376017   1.0000000
B2   B   0.761260690613043   0.096235218243019   0.109557323479511   1.0000000
B2   B   0.761102495709238   0.238899525486779   0.111066145031966   1.0000000
B2   B   0.761381772652917   0.381688839056466   0.113842776021564   1.0000000
B2   B   0.762250363479117   0.525108751458991   0.115982096951483   1.0000000
B2   B   0.763016723583180   0.668579711939755   0.119374604954313   1.0000000
B2   B   0.763609679747489   0.812414848903334   0.115617776845781   1.0000000
N2   N   0.952374999386250   0.905536915748403   0.108651844454461   1.0000000
N2   N   0.951725626630363   0.048275775287621   0.108150233848745   1.0000000
N2   N   0.951142472943571   0.190946738820339   0.109182648972215   1.0000000
N2   N   0.951197503673338   0.333863649851601   0.109917310752316   1.0000000
N2   N   0.951659505712087   0.476778149014603   0.110460233533653   1.0000000
N2   N   0.952217378480783   0.619607987251400   0.110598374428408   1.0000000
N2   N   0.952464007023854   0.762514530033038   0.110178481319910   1.0000000
N2   N   0.095012885785114   0.904988516132906   0.107596951398207   1.0000000
N2   N   0.094464486169602   0.047626402531755   0.108651844454461   1.0000000
N2   N   0.093062533561696   0.189665115772411   0.111437048640813   1.0000000
N2   N   0.093244498814931   0.333098016401855   0.111916418420355   1.0000000
N2   N   0.094238522533125   0.476395642973395   0.110873915125640   1.0000000
N2   N   0.095068304384945   0.619365088713363   0.109713648378271   1.0000000
N2   N   0.095162572833244   0.762185729152714   0.108395953073180   1.0000000
N2   N   0.237815672765320   0.904838829084746   0.108395953073180   1.0000000
N2   N   0.237486871884998   0.047537394894140   0.110178481319910   1.0000000
N2   N   0.236464592664502   0.189679066607970   0.115448179758560   1.0000000
N2   N   0.233442723362970   0.330425151949753   0.118769175226309   1.0000000
N2   N   0.236309263406864   0.475598555381309   0.113869779910473   1.0000000
N2   N   0.238074359912402   0.619042946949739   0.110978990067027   1.0000000
N2   N   0.238007742101193   0.761993659816820   0.109345958494210   1.0000000
N2   N   0.380636313204625   0.904933097533071   0.109713648378271   1.0000000
N2   N   0.380393414666568   0.047784023437222   0.110598374428408   1.0000000
N2   N   0.380080294635981   0.190382295505905   0.116034852880710   1.0000000
N2   N   0.378250048185685   0.331991916944845   0.125729498239821   1.0000000
N2   N   0.373927758447219   0.470121091940263   0.113055456236748   1.0000000
N2   N   0.381500563931806   0.618500837986196   0.111366592324921   1.0000000
N2   N   0.380958454968258   0.761927042005627   0.110978990067027   1.0000000
N2   N   0.523605758943642   0.905762879384839   0.110873915125640   1.0000000
N2   N   0.523223252902468   0.048341896205951   0.110460233533653   1.0000000
N2   N   0.523038254143960   0.191145889299395   0.113500523748508   1.0000000
N2   N   0.523234190430592   0.334472290216867   0.119032902434945   1.0000000
N2   N   0.529880309976789   0.626073643470722   0.113055456236748   1.0000000
N2   N   0.524402846535725   0.763692138511131   0.113869779910473   1.0000000
N2   N   0.666903385515076   0.906756903103066   0.111916418420355   1.0000000
N2   N   0.666137752065380   0.048803898244648   0.109917310752316   1.0000000
N2   N   0.665861485608042   0.191327100889284   0.111679257128492   1.0000000
N2   N   0.666050492093039   0.333950909823977   0.116163670665714   1.0000000
N2   N   0.665529111700099   0.476767211486437   0.119032902434945   1.0000000
N2   N   0.668009484972137   0.621751353732319   0.125729498239821   1.0000000
N2   N   0.669576249967208   0.766558678555033   0.118769175226309   1.0000000
N2   N   0.810336286145628   0.906938868356325   0.111437048640813   1.0000000
N2   N   0.809054663097708   0.048858928974401   0.109182648972215   1.0000000
N2   N   0.808615604343372   0.191385797574661   0.109699095207235   1.0000000
N2   N   0.808674301028696   0.334139916308998   0.111679257128492   1.0000000
N2   N   0.808855512618600   0.476963147773060   0.113500523748508   1.0000000
N2   N   0.809619106412056   0.619921107282073   0.116034852880710   1.0000000
N2   N   0.810322335310044   0.763536809253440   0.115448179758560   1.0000000
Al2   Al   0.489429691764760   0.510572329432186   0.099164218165786   1.0000000
Al2   Al   0.557907349497128   0.442094052419872   0.967024473652859   1.0000000


