data_1
_audit_creation_method   'vasp2cif'
_cell_length_a    17.52789999999977
_cell_length_b    17.52789999999977
_cell_length_c    15.0
_cell_angle_alpha    90.0
_cell_angle_beta    90.0
_cell_angle_gamma    119.99999999999916

_symmetry_space_group_name_H-M    'P 1'
loop_
_atom_site_label
_atom_site_type_symbol
_atom_site_fract_x
_atom_site_fract_y
_atom_site_fract_z
_atom_site_occupancy
B2   B   0.905452047363671   0.952923875626058   0.108556418975681   1.0000000
B2   B   0.904705551029817   0.095296195662141   0.109632553420090   1.0000000
B2   B   0.904559080956318   0.238086755148063   0.110293174940460   1.0000000
B2   B   0.904902778489945   0.381073431751885   0.109778105336185   1.0000000
B2   B   0.905631834735057   0.524098047480224   0.109315378782156   1.0000000
B2   B   0.905950437014394   0.667223271223956   0.109165996266619   1.0000000
B2   B   0.905741746633193   0.810065235729014   0.109041823728249   1.0000000
B2   B   0.047769426758725   0.952232296606298   0.110193587951670   1.0000000
B2   B   0.047077839715977   0.094549673108368   0.108556418502680   1.0000000
B2   B   0.046787775311186   0.237474057154707   0.107671568415976   1.0000000
B2   B   0.046963447209878   0.380901635034658   0.107573696282022   1.0000000
B2   B   0.047461679865671   0.524054617946223   0.108515664781377   1.0000000
B2   B   0.048073403010764   0.666952229214519   0.110310003335095   1.0000000
B2   B   0.048077356862908   0.809674450953837   0.110983346016350   1.0000000
B2   B   0.190327298739229   0.951924406230130   0.110983344490357   1.0000000
B2   B   0.189936465306987   0.094259966074811   0.109041819604252   1.0000000
B2   B   0.188413154296165   0.235823823543390   0.106913490646413   1.0000000
B2   B   0.188636413315956   0.379968257218245   0.108084323097295   1.0000000
B2   B   0.189062300723913   0.523983792527585   0.106889568941933   1.0000000
B2   B   0.190389187389086   0.666880505608524   0.109098202366058   1.0000000
B2   B   0.190502921026193   0.809498773514802   0.110931135546726   1.0000000
B2   B   0.333049506490468   0.951928320823255   0.110310005749093   1.0000000
B2   B   0.332778442753097   0.094051302905605   0.109165991889618   1.0000000
B2   B   0.332317648401086   0.236343974633289   0.108248937149200   1.0000000
B2   B   0.328464657895629   0.375862678082372   0.118808114889058   1.0000000
B2   B   0.328902345884232   0.523415123111472   0.121594922872327   1.0000000
B2   B   0.333055094601664   0.666946608172280   0.109792009868149   1.0000000
B2   B   0.333121147711425   0.809612441453921   0.109098205899062   1.0000000
B2   B   0.475947069472796   0.952539901064286   0.108515670092379   1.0000000
B2   B   0.475903694025762   0.094369987940967   0.109315387475155   1.0000000
B2   B   0.475730144578524   0.235812676079506   0.107803842926004   1.0000000
B2   B   0.474825524346572   0.376051395600878   0.110483847158010   1.0000000
B2   B   0.476586661321526   0.671099511455810   0.121594923386333   1.0000000
B2   B   0.476017923262430   0.810939386344070   0.106889574678933   1.0000000
B2   B   0.619100103937420   0.953038237207136   0.107573698389023   1.0000000
B2   B   0.618928238596182   0.095098908792089   0.109778106422186   1.0000000
B2   B   0.619009472068495   0.237240028838212   0.108298729205124   1.0000000
B2   B   0.619955950300474   0.380045783908506   0.107391609996445   1.0000000
B2   B   0.623950173369113   0.525176142856391   0.110483841900008   1.0000000
B2   B   0.624138971372709   0.671537065820433   0.118808114602057   1.0000000
B2   B   0.620033485941801   0.811365356087041   0.108084318749294   1.0000000
B2   B   0.762527683373325   0.953213944215815   0.107671570641972   1.0000000
B2   B   0.761914940612927   0.095442595577710   0.110293177343458   1.0000000
B2   B   0.761980988071815   0.238020717108199   0.110400229804136   1.0000000
B2   B   0.762761793545772   0.380992283362503   0.108298720798126   1.0000000
B2   B   0.764189076096511   0.524271538228551   0.107803834962007   1.0000000
B2   B   0.763657684137758   0.667684032143912   0.108248945777202   1.0000000
B2   B   0.764177847880664   0.811588562385824   0.106913493120409   1.0000000
Ge2   Ge   0.472141628393683   0.527860027153239   0.191105769670182   1.0000000
N2   N   0.952686983765861   0.904940279847225   0.109403360268609   1.0000000
N2   N   0.952320357748408   0.047681359561610   0.109248316143826   1.0000000
N2   N   0.952028505682604   0.190387832371628   0.109624708865486   1.0000000
N2   N   0.952114388280071   0.333288019694619   0.109567490691622   1.0000000
N2   N   0.952480349069586   0.476237952818558   0.109451636943484   1.0000000
N2   N   0.952792718007660   0.619219269395741   0.109840292227075   1.0000000
N2   N   0.952827225910090   0.762084682775372   0.109936242380172   1.0000000
N2   N   0.095317818276634   0.904683934191391   0.111196187166062   1.0000000
N2   N   0.095061425590820   0.047314735049162   0.109403366765599   1.0000000
N2   N   0.094101656008345   0.189477106012540   0.106936015985699   1.0000000
N2   N   0.094316718298274   0.332857356552062   0.106697755436542   1.0000000
N2   N   0.094485203374495   0.476111080551791   0.106810369016375   1.0000000
N2   N   0.095314548466007   0.619160982195101   0.109340289626742   1.0000000
N2   N   0.095406014323754   0.761960410466515   0.111157095066474   1.0000000
N2   N   0.238041301694472   0.904595696434275   0.111157095958476   1.0000000
N2   N   0.237917046601651   0.047174543053919   0.109936234957174   1.0000000
N2   N   0.237543743910803   0.189636100037156   0.107812301998429   1.0000000
N2   N   0.235283836447665   0.330753132900502   0.108881669775097   1.0000000
N2   N   0.235922881629709   0.475690345978057   0.108466038070144   1.0000000
N2   N   0.237935091381507   0.619074533085558   0.108154653999076   1.0000000
N2   N   0.238077486469697   0.761924147725327   0.109989121872610   1.0000000
N2   N   0.380840688907936   0.904687077316946   0.109340293776746   1.0000000
N2   N   0.380782457791258   0.047209032912367   0.109840299975074   1.0000000
N2   N   0.380755952638414   0.189772478157895   0.107902887860962   1.0000000
N2   N   0.380481851958747   0.332407721335666   0.111641524939266   1.0000000
N2   N   0.369417474234762   0.469178825294971   0.135157648704051   1.0000000
N2   N   0.380951971689717   0.619049826269273   0.116915474647514   1.0000000
N2   N   0.380927205403409   0.762066615498494   0.108154658620076   1.0000000
N2   N   0.523890651676215   0.905516392141488   0.106810382794367   1.0000000
N2   N   0.523763705530405   0.047521312690419   0.109451637388491   1.0000000
N2   N   0.523818492733025   0.189609189937590   0.108315705784585   1.0000000
N2   N   0.524012596293030   0.331491485254612   0.107061934924106   1.0000000
N2   N   0.528701505347880   0.471300091277189   0.125974720764920   1.0000000
N2   N   0.530822833988087   0.630584207904251   0.135157650282052   1.0000000
N2   N   0.524311436634947   0.764078974698260   0.108466035254142   1.0000000
N2   N   0.667144434060025   0.905685029174692   0.106697753223542   1.0000000
N2   N   0.666713650036382   0.047887265968868   0.109567489223627   1.0000000
N2   N   0.666676353717954   0.190367849244942   0.109861943512307   1.0000000
N2   N   0.666953409315833   0.333048401233181   0.107231944468507   1.0000000
N2   N   0.668510178877400   0.475989119716964   0.107061914525113   1.0000000
N2   N   0.667593909308391   0.619519842586266   0.111641527574263   1.0000000
N2   N   0.669248533553484   0.764717921020325   0.108881662644098   1.0000000
N2   N   0.810524606503465   0.905900059025647   0.106936016361704   1.0000000
N2   N   0.809613892905343   0.047973203390427   0.109624718552486   1.0000000
N2   N   0.809439332303008   0.190562322388973   0.111055874786318   1.0000000
N2   N   0.809633888863052   0.333325331443023   0.109861937572311   1.0000000
N2   N   0.810392701617401   0.476183261716984   0.108315685273582   1.0000000
N2   N   0.810229243209104   0.619245751408551   0.107902903213964   1.0000000
N2   N   0.810365562056854   0.762457947873203   0.107812313294424   1.0000000


