data_1
_audit_creation_method   'vasp2cif'
_cell_length_a    17.52789999999977
_cell_length_b    17.52789999999977
_cell_length_c    15.0
_cell_angle_alpha    90.0
_cell_angle_beta    90.0
_cell_angle_gamma    119.99999999999916

_symmetry_space_group_name_H-M    'P 1'
loop_
_atom_site_label
_atom_site_type_symbol
_atom_site_fract_x
_atom_site_fract_y
_atom_site_fract_z
_atom_site_occupancy
B2   B   0.904739686527854   0.952311779216254   0.111030436918694   1.0000000
B2   B   0.904805538346978   0.095196482849019   0.111036897599578   1.0000000
B2   B   0.904823461638629   0.238126077664817   0.111056745067408   1.0000000
B2   B   0.904805538346978   0.381037749188956   0.111036897599578   1.0000000
B2   B   0.904739686527854   0.523858312559602   0.111030436918694   1.0000000
B2   B   0.905110361714217   0.666785010406649   0.111055829996559   1.0000000
B2   B   0.905110361714217   0.809755756555570   0.111055829996559   1.0000000
B2   B   0.047633746244414   0.952368274951590   0.111035095193790   1.0000000
B2   B   0.047690241979749   0.095262334668142   0.111030436918694   1.0000000
B2   B   0.047759041463965   0.238177959262146   0.111031174970709   1.0000000
B2   B   0.047759041463965   0.381011487448818   0.111031174970709   1.0000000
B2   B   0.047690241979749   0.523858312559602   0.111030436918694   1.0000000
B2   B   0.047633746244414   0.666697588096822   0.111035095193790   1.0000000
B2   B   0.047676526529682   0.809554321666843   0.111026116222784   1.0000000
B2   B   0.190447699529160   0.952325494666321   0.111026116222784   1.0000000
B2   B   0.190246264640434   0.094891659481780   0.111055829996559   1.0000000
B2   B   0.190653667839234   0.238053655060774   0.111040516690515   1.0000000
B2   B   0.190568228658178   0.380999316952589   0.111014632418885   1.0000000
B2   B   0.190653667839234   0.524030418026462   0.111040516690515   1.0000000
B2   B   0.190246264640434   0.666785010406649   0.111055829996559   1.0000000
B2   B   0.190447699529160   0.809554321666843   0.111026116222784   1.0000000
B2   B   0.333304433100176   0.952368274951590   0.111035095193790   1.0000000
B2   B   0.333217010790350   0.094891659481780   0.111055829996559   1.0000000
B2   B   0.332684228757616   0.236796841565233   0.111045380505207   1.0000000
B2   B   0.333584375998010   0.379173449376862   0.111013640324848   1.0000000
B2   B   0.333584375998010   0.525841331868148   0.111013640324848   1.0000000
B2   B   0.332684228757616   0.667317792439382   0.111045380505207   1.0000000
B2   B   0.333217010790350   0.809755756555570   0.111055829996559   1.0000000
B2   B   0.476143708637397   0.952311779216254   0.111030436918694   1.0000000
B2   B   0.476143708637397   0.095262334668142   0.111030436918694   1.0000000
B2   B   0.475971603170536   0.238053655060774   0.111040516690515   1.0000000
B2   B   0.474160689328850   0.379173449376862   0.111013640324848   1.0000000
B2   B   0.474160689328850   0.666417645198988   0.111013640324848   1.0000000
B2   B   0.475971603170536   0.809348353356769   0.111040516690515   1.0000000
B2   B   0.618990533747186   0.952242979732039   0.111031174970709   1.0000000
B2   B   0.618964272007048   0.095196482849019   0.111036897599578   1.0000000
B2   B   0.618990533747186   0.238177959262146   0.111031174970709   1.0000000
B2   B   0.619002704243414   0.380999316952589   0.111014632418885   1.0000000
B2   B   0.620828571819142   0.525841331868148   0.111013640324848   1.0000000
B2   B   0.620828571819142   0.666417645198988   0.111013640324848   1.0000000
B2   B   0.619002704243414   0.809433792537825   0.111014632418885   1.0000000
B2   B   0.761824061933857   0.952242979732039   0.111031174970709   1.0000000
B2   B   0.761875943531187   0.095178559557367   0.111056745067408   1.0000000
B2   B   0.761875943531187   0.238126077664817   0.111056745067408   1.0000000
B2   B   0.761824061933857   0.381011487448818   0.111031174970709   1.0000000
B2   B   0.761948366135229   0.524030418026462   0.111040516690515   1.0000000
B2   B   0.763205179630770   0.667317792439382   0.111045380505207   1.0000000
B2   B   0.761948366135229   0.809348353356769   0.111040516690515   1.0000000
N2   N   0.952383615432506   0.904792413272170   0.111023874461117   1.0000000
N2   N   0.952423859456379   0.047577542461627   0.111010559668838   1.0000000
N2   N   0.952587771019074   0.190563218969163   0.111027597701371   1.0000000
N2   N   0.952587771019074   0.333451534167910   0.111027597701371   1.0000000
N2   N   0.952423859456379   0.476273299112750   0.111010559668838   1.0000000
N2   N   0.952383615432506   0.619019895835332   0.111023874461117   1.0000000
N2   N   0.952397983427393   0.761913338551197   0.111029163905483   1.0000000
N2   N   0.095230270127690   0.904771131790308   0.111010898369074   1.0000000
N2   N   0.095208988645829   0.047617786485500   0.111023874461117   1.0000000
N2   N   0.095639660739575   0.190819971070510   0.111015587332975   1.0000000
N2   N   0.095691259229028   0.333559976451514   0.111008271408885   1.0000000
N2   N   0.095639660739575   0.476248383343066   0.111015587332975   1.0000000
N2   N   0.095208988645829   0.619019895835332   0.111023874461117   1.0000000
N2   N   0.095230270127690   0.761889543568387   0.111010898369074   1.0000000
N2   N   0.238111858349618   0.904771131790308   0.111010898369074   1.0000000
N2   N   0.238088063366808   0.047603418490613   0.111029163905483   1.0000000
N2   N   0.238011084331112   0.190366508246015   0.111024804826847   1.0000000
N2   N   0.239076097099976   0.334211388247488   0.110995091301720   1.0000000
N2   N   0.239076097099976   0.476293402526482   0.110995091301720   1.0000000
N2   N   0.238011084331112   0.619073269760092   0.111024804826847   1.0000000
N2   N   0.238088063366808   0.761913338551197   0.111029163905483   1.0000000
N2   N   0.380981506082667   0.904792413272170   0.111023874461117   1.0000000
N2   N   0.380981506082667   0.047617786485500   0.111023874461117   1.0000000
N2   N   0.380928132157907   0.190366508246015   0.111024804826847   1.0000000
N2   N   0.380538278330120   0.332503848417237   0.110993152474151   1.0000000
N2   N   0.379019877952572   0.475224285813283   0.110817296221148   1.0000000
N2   N   0.380538278330120   0.619463123587879   0.110993152474151   1.0000000
N2   N   0.380928132157907   0.761990317586894   0.111024804826847   1.0000000
N2   N   0.523753018573931   0.904361741178424   0.111015587332975   1.0000000
N2   N   0.523728102804247   0.047577542461627   0.111010559668838   1.0000000
N2   N   0.523753018573931   0.190819971070510   0.111015587332975   1.0000000
N2   N   0.523707999390515   0.334211388247488   0.110995091301720   1.0000000
N2   N   0.524777116103714   0.475224285813283   0.110817296221148   1.0000000
N2   N   0.524777116103714   0.620981523965427   0.110817296221148   1.0000000
N2   N   0.523707999390515   0.760925304818030   0.110995091301720   1.0000000
N2   N   0.666441425465482   0.904310142688971   0.111008271408885   1.0000000
N2   N   0.666549867749087   0.047413630898932   0.111027597701371   1.0000000
N2   N   0.666549867749087   0.190563218969163   0.111027597701371   1.0000000
N2   N   0.666441425465482   0.333559976451514   0.111008271408885   1.0000000
N2   N   0.665790013669509   0.476293402526482   0.110995091301720   1.0000000
N2   N   0.667497553499760   0.619463123587879   0.110993152474151   1.0000000
N2   N   0.665790013669509   0.760925304818030   0.110995091301720   1.0000000
N2   N   0.809181430847489   0.904361741178424   0.111015587332975   1.0000000
N2   N   0.809438182948836   0.047413630898932   0.111027597701371   1.0000000
N2   N   0.809525273905997   0.190476128012001   0.111036820396260   1.0000000
N2   N   0.809438182948836   0.333451534167910   0.111027597701371   1.0000000
N2   N   0.809181430847489   0.476248383343066   0.111015587332975   1.0000000
N2   N   0.809634893671983   0.619073269760092   0.111024804826847   1.0000000
N2   N   0.809634893671983   0.761990317586894   0.111024804826847   1.0000000
O2   O   0.476191212381998   0.523810808815000   0.111119225285905   1.0000000


