data_1
_audit_creation_method   'vasp2cif'
_cell_length_a    17.52789999999977
_cell_length_b    17.52789999999977
_cell_length_c    15.0
_cell_angle_alpha    90.0
_cell_angle_beta    90.0
_cell_angle_gamma    119.99999999999916

_symmetry_space_group_name_H-M    'P 1'
loop_
_atom_site_label
_atom_site_type_symbol
_atom_site_fract_x
_atom_site_fract_y
_atom_site_fract_z
_atom_site_occupancy
As2   As   0.471849328099209   0.528184307505652   0.224897609905207   1.0000000
B2   B   0.904860322634056   0.952392996419082   0.106195267888994   1.0000000
B2   B   0.904819890159942   0.095194455246890   0.104726941375771   1.0000000
B2   B   0.904810359510305   0.238057725976477   0.104651747398997   1.0000000
B2   B   0.904858873166322   0.380929696559896   0.105234346990965   1.0000000
B2   B   0.905015356770299   0.523824203715084   0.106285908821958   1.0000000
B2   B   0.904799677984486   0.666708666807250   0.107561936216504   1.0000000
B2   B   0.904736214226581   0.809449524763296   0.108600963760253   1.0000000
B2   B   0.047656179368512   0.952338690685701   0.106822960111957   1.0000000
B2   B   0.047608006390254   0.095136813836856   0.106213805418914   1.0000000
B2   B   0.047568028054277   0.237994795722931   0.106494666051499   1.0000000
B2   B   0.047587630319328   0.380937893607928   0.106867626057188   1.0000000
B2   B   0.047686572723072   0.523830297144704   0.106762753916399   1.0000000
B2   B   0.047715027068152   0.666663094656162   0.106755105884245   1.0000000
B2   B   0.047670714386634   0.809514425327076   0.107111895191947   1.0000000
B2   B   0.190477904499699   0.952316833775581   0.107131969708946   1.0000000
B2   B   0.190555010516462   0.095261380700311   0.108635409523669   1.0000000
B2   B   0.190208640254701   0.237859771564054   0.110587018407220   1.0000000
B2   B   0.190063404718616   0.380743022327433   0.114038106371849   1.0000000
B2   B   0.190266082901670   0.523832003417925   0.112267345552374   1.0000000
B2   B   0.190615751770289   0.666647886841520   0.109557959631925   1.0000000
B2   B   0.190517419250911   0.809478631020252   0.107271360284551   1.0000000
B2   B   0.333328775406247   0.952276644021113   0.106767719832297   1.0000000
B2   B   0.333283655300303   0.095190429886112   0.107604701176638   1.0000000
B2   B   0.333482406098456   0.238417185550787   0.112596060865742   1.0000000
B2   B   0.331813461471612   0.380041261502721   0.128401472891375   1.0000000
B2   B   0.331342469254398   0.523102040462221   0.133485962040845   1.0000000
B2   B   0.333454842795731   0.666547535578523   0.119687369311350   1.0000000
B2   B   0.333349745363365   0.809381980096660   0.109558793168314   1.0000000
B2   B   0.476172998894850   0.952315248394829   0.106735483658394   1.0000000
B2   B   0.476174297642956   0.094980687863715   0.106289156878158   1.0000000
B2   B   0.476078390953446   0.237445494256277   0.106742701475153   1.0000000
B2   B   0.475173457494618   0.379480377346447   0.102271026897413   1.0000000
B2   B   0.476907575153360   0.668668085632371   0.133473368564546   1.0000000
B2   B   0.476170360960477   0.809744154633542   0.112225265418520   1.0000000
B2   B   0.619064368458444   0.952415569616079   0.106824024865444   1.0000000
B2   B   0.619068381870654   0.095144351797364   0.105209024199451   1.0000000
B2   B   0.619119524903305   0.237899210117640   0.105353739591975   1.0000000
B2   B   0.619274194941528   0.380717307382001   0.103702557761319   1.0000000
B2   B   0.620520867808774   0.524827743510318   0.102263368047756   1.0000000
B2   B   0.619959583008299   0.668197244188591   0.128363654497770   1.0000000
B2   B   0.619260336633580   0.809949741278846   0.113982311638676   1.0000000
B2   B   0.762005472994301   0.952441458260384   0.106454830043669   1.0000000
B2   B   0.761953846515293   0.095203407050372   0.104625340583217   1.0000000
B2   B   0.761989589489181   0.238016869942456   0.104684721886773   1.0000000
B2   B   0.762098229677895   0.380875268191763   0.105355585892143   1.0000000
B2   B   0.762554007393269   0.523921886800002   0.106734286544200   1.0000000
B2   B   0.761581000051723   0.666516490976116   0.112556178916805   1.0000000
B2   B   0.762146188845098   0.809799169004748   0.110545044292398   1.0000000
N2   N   0.952393918239714   0.904694679903668   0.106950291155034   1.0000000
N2   N   0.952430094688949   0.047571525440638   0.105268413047500   1.0000000
N2   N   0.952389603447746   0.190414981649701   0.104763390631060   1.0000000
N2   N   0.952409720918942   0.333289933035654   0.105109207545306   1.0000000
N2   N   0.952510100977373   0.476171239313989   0.105831043974139   1.0000000
N2   N   0.952450328639882   0.619067064728015   0.106604780787231   1.0000000
N2   N   0.952420484961025   0.761907135130494   0.107821892980927   1.0000000
N2   N   0.095270606815320   0.904727655103150   0.107017643128414   1.0000000
N2   N   0.095300904936490   0.047598460471127   0.106980829334354   1.0000000
N2   N   0.095123055798031   0.190317594522508   0.106887819104923   1.0000000
N2   N   0.095075357083085   0.333227206134196   0.108324426201471   1.0000000
N2   N   0.095199783825270   0.476183208783221   0.107669836225320   1.0000000
N2   N   0.095363582561156   0.619051734519124   0.107198017205136   1.0000000
N2   N   0.095291279429479   0.761886886516871   0.106884898845888   1.0000000
N2   N   0.238100819496920   0.904701676286523   0.106897451963621   1.0000000
N2   N   0.238082674397183   0.047560431510676   0.107861543222179   1.0000000
N2   N   0.238183130709169   0.190533715158138   0.111411766339772   1.0000000
N2   N   0.237355161648988   0.332790914328570   0.115715761093337   1.0000000
N2   N   0.237534560390714   0.476117206805789   0.116901914866002   1.0000000
N2   N   0.238241419806575   0.619057704996934   0.113702443165654   1.0000000
N2   N   0.238136259449896   0.761858484888884   0.108660964305626   1.0000000
N2   N   0.380949659915135   0.904633491868772   0.107196586629681   1.0000000
N2   N   0.380931183219841   0.047542497288198   0.106636913954179   1.0000000
N2   N   0.380885219986206   0.190505300996669   0.108478039398160   1.0000000
N2   N   0.381029168323535   0.334023357856994   0.117270352588514   1.0000000
N2   N   0.373426129358110   0.471858445123432   0.152123542334497   1.0000000
N2   N   0.380883361243623   0.619120542303363   0.132484018504556   1.0000000
N2   N   0.380948518284945   0.761760848283901   0.113696200444319   1.0000000
N2   N   0.523820897854253   0.904806317835499   0.107611446966523   1.0000000
N2   N   0.523827333757166   0.047486744244550   0.105807917554273   1.0000000
N2   N   0.523862457526614   0.190128200163348   0.106306892721655   1.0000000
N2   N   0.523858524364409   0.332388337112928   0.104337565254053   1.0000000
N2   N   0.529858873526682   0.470141168218771   0.079849339633709   1.0000000
N2   N   0.528157149934530   0.626603230720179   0.152127596207958   1.0000000
N2   N   0.523887148122352   0.762473309904088   0.116854131046756   1.0000000
N2   N   0.666773676060171   0.904932184523352   0.108278442191548   1.0000000
N2   N   0.666716054505155   0.047595520895233   0.105071377954878   1.0000000
N2   N   0.666750424802831   0.190364285350108   0.104974578573640   1.0000000
N2   N   0.666838927611027   0.333156152538470   0.104900868942518   1.0000000
N2   N   0.667608336672833   0.476139016748473   0.104357498976517   1.0000000
N2   N   0.665974473301182   0.618971383051987   0.117224631807894   1.0000000
N2   N   0.667211921160308   0.762653455663186   0.115646593696008   1.0000000
N2   N   0.809685433348312   0.904887073209568   0.106862190233678   1.0000000
N2   N   0.809597635484110   0.047621820315723   0.104730459099560   1.0000000
N2   N   0.809591762202815   0.190427271891843   0.104402866387031   1.0000000
N2   N   0.809643804862008   0.333252438322086   0.104977760364744   1.0000000
N2   N   0.809868390086517   0.476134362357894   0.106303853299151   1.0000000
N2   N   0.809495078576149   0.619112575358233   0.108434408547003   1.0000000
N2   N   0.809465049823327   0.761821133956247   0.111383136156450   1.0000000


