data_1
_audit_creation_method   'vasp2cif'
_cell_length_a    17.52789999999977
_cell_length_b    17.52789999999977
_cell_length_c    15.0
_cell_angle_alpha    90.0
_cell_angle_beta    90.0
_cell_angle_gamma    119.99999999999916

_symmetry_space_group_name_H-M    'P 1'
loop_
_atom_site_label
_atom_site_type_symbol
_atom_site_fract_x
_atom_site_fract_y
_atom_site_fract_z
_atom_site_occupancy
Al2   Al   0.532091819355503   0.631151583954068   0.111004671178540   1.0000000
B2   B   0.909398666948823   0.955569508229225   0.111178743817518   1.0000000
B2   B   0.904275903563660   0.094818111045929   0.111071519514917   1.0000000
B2   B   0.902772995901971   0.236645228628198   0.111054947124307   1.0000000
B2   B   0.903553432392550   0.379746185187206   0.110975910237181   1.0000000
B2   B   0.907600296083085   0.524065538011045   0.110572714884433   1.0000000
B2   B   0.913319252695045   0.669379595541366   0.110704541334082   1.0000000
B2   B   0.913725742702466   0.814697178023236   0.110956489603167   1.0000000
B2   B   0.050936553119064   0.953918034710183   0.110789668837021   1.0000000
B2   B   0.047182726990284   0.094322533940271   0.111090330329368   1.0000000
B2   B   0.044086733880238   0.235602303967379   0.111135650812756   1.0000000
B2   B   0.043512925195247   0.378882267027954   0.111342689755522   1.0000000
B2   B   0.045475292959595   0.523263869999909   0.111532661804183   1.0000000
B2   B   0.049775657240340   0.667792895730385   0.110998393230581   1.0000000
B2   B   0.051871300177111   0.811533917653983   0.110681268987597   1.0000000
B2   B   0.191964469080145   0.952664249471669   0.110991214846813   1.0000000
B2   B   0.189504244639488   0.093105834374029   0.111147984333224   1.0000000
B2   B   0.184939489213035   0.232948765576624   0.111154243685826   1.0000000
B2   B   0.182931117397745   0.376828914723573   0.110676912219768   1.0000000
B2   B   0.182918988740761   0.522365222834194   0.111037471602362   1.0000000
B2   B   0.187228808454115   0.667301242558212   0.111706304212697   1.0000000
B2   B   0.191481247779327   0.810569009155635   0.111456806751758   1.0000000
B2   B   0.333503749606234   0.952392096186933   0.111508153843838   1.0000000
B2   B   0.332852949572363   0.093345065792473   0.111026195397086   1.0000000
B2   B   0.328008593104521   0.231528633004965   0.110889915612029   1.0000000
B2   B   0.321099423834363   0.371333488679489   0.109965645335845   1.0000000
B2   B   0.318510075780161   0.519868638852842   0.109463932567150   1.0000000
B2   B   0.323756993306796   0.667149371466923   0.109964624006401   1.0000000
B2   B   0.332016495931491   0.810601955370812   0.111478210271187   1.0000000
B2   B   0.475723514787288   0.953095208151049   0.111557737979909   1.0000000
B2   B   0.475942590110837   0.093393829139311   0.111124323975538   1.0000000
B2   B   0.475160989278393   0.232268700051200   0.110699819089927   1.0000000
B2   B   0.465457437055895   0.359879981707112   0.110953839678251   1.0000000
B2   B   0.444029279066166   0.517058338885765   0.113207261772978   1.0000000
B2   B   0.456271413766014   0.675648697032507   0.112886356233110   1.0000000
B2   B   0.474457365215492   0.813345138424812   0.109970980874839   1.0000000
B2   B   0.619193336807771   0.952800654280469   0.111126820641008   1.0000000
B2   B   0.618823218008298   0.094518302871456   0.111322162227138   1.0000000
B2   B   0.619198944209421   0.236587923438722   0.110705532800528   1.0000000
B2   B   0.621084264579964   0.379598599112893   0.111297939714580   1.0000000
B2   B   0.646528583516160   0.537880694487736   0.112797123638575   1.0000000
B2   B   0.650383723634231   0.680517654235875   0.110140977952956   1.0000000
B2   B   0.622495807419286   0.811834974199653   0.110070379856232   1.0000000
B2   B   0.763897561486774   0.953786966461237   0.111114839065018   1.0000000
B2   B   0.761424523762722   0.094742612006192   0.111235427077586   1.0000000
B2   B   0.761266497624395   0.236949368558878   0.110917439143123   1.0000000
B2   B   0.763096065612400   0.380108612495811   0.110661376162451   1.0000000
B2   B   0.770751906786889   0.525453615082170   0.111406968634915   1.0000000
B2   B   0.782219087404902   0.675716353639842   0.112007068946858   1.0000000
B2   B   0.773397659848252   0.817692928281086   0.111004434366924   1.0000000
N2   N   0.957335204710630   0.908304014012452   0.110873348005228   1.0000000
N2   N   0.953417659253650   0.048884850882569   0.111013505592574   1.0000000
N2   N   0.950040319108990   0.189094178890627   0.110992566498088   1.0000000
N2   N   0.949540470324585   0.331391628618668   0.111141449339629   1.0000000
N2   N   0.951710099049207   0.474804121582691   0.110993636913315   1.0000000
N2   N   0.956294570832724   0.619255365159029   0.110346733403193   1.0000000
N2   N   0.958150336190449   0.764347620162986   0.110599515127648   1.0000000
N2   N   0.097887070091109   0.906039276984707   0.110669492450412   1.0000000
N2   N   0.095747987944348   0.047726172911056   0.110989927490308   1.0000000
N2   N   0.091724582648717   0.188038679717058   0.111223631298926   1.0000000
N2   N   0.089724513445579   0.330219416781603   0.111170175506664   1.0000000
N2   N   0.089941041203737   0.473960735807246   0.111646053189663   1.0000000
N2   N   0.093802876150572   0.618488420821788   0.111727020154103   1.0000000
N2   N   0.097376078372567   0.762772490730962   0.110940665599867   1.0000000
N2   N   0.239095554935955   0.905239657311906   0.111291636892762   1.0000000
N2   N   0.238435496743529   0.047107131240858   0.111047779287472   1.0000000
N2   N   0.234514876637784   0.187023897574640   0.111243638656190   1.0000000
N2   N   0.228844780112703   0.326675786263346   0.110682728882297   1.0000000
N2   N   0.226752473517101   0.472243861124116   0.110207410572312   1.0000000
N2   N   0.230955803978753   0.617851591923784   0.111025444215174   1.0000000
N2   N   0.237431302130755   0.762340402407887   0.111870090779985   1.0000000
N2   N   0.380885920388968   0.905237418928726   0.111778594612101   1.0000000
N2   N   0.381176626271454   0.046997426331898   0.111151645521359   1.0000000
N2   N   0.379861447619057   0.188019548546929   0.110814477340461   1.0000000
N2   N   0.373160298253275   0.325913480945220   0.110520338915782   1.0000000
N2   N   0.357005762821102   0.464115439810583   0.109035106520865   1.0000000
N2   N   0.366275737177851   0.616657028644507   0.109544866233195   1.0000000
N2   N   0.378532648529111   0.762674614131764   0.110368239337210   1.0000000
N2   N   0.523801637383657   0.906666849379352   0.111043137407512   1.0000000
N2   N   0.523916790105946   0.047228791799579   0.111511171725397   1.0000000
N2   N   0.524040520760689   0.187822849102314   0.110626522777604   1.0000000
N2   N   0.523834600308439   0.326992671453709   0.110909297677144   1.0000000
N2   N   0.522994685093639   0.766542005653620   0.109642618346848   1.0000000
N2   N   0.667825580554253   0.905623168203507   0.110730518420856   1.0000000
N2   N   0.666476087559018   0.047217151278857   0.111424495993386   1.0000000
N2   N   0.666419535802859   0.189477027079491   0.110922970642564   1.0000000
N2   N   0.667482757998129   0.332317027950721   0.110717778326420   1.0000000
N2   N   0.675199855915169   0.476695133715128   0.112152725410685   1.0000000
N2   N   0.691005562695868   0.629316938988711   0.112580825357601   1.0000000
N2   N   0.679595581721587   0.771682180851777   0.109802607290330   1.0000000
N2   N   0.815505385520371   0.910131063071534   0.111424481956689   1.0000000
N2   N   0.809449898884057   0.047807721179789   0.111153577944839   1.0000000
N2   N   0.808222506225825   0.189332355828928   0.111043441595172   1.0000000
N2   N   0.808869233766517   0.331918805120084   0.110742978536760   1.0000000
N2   N   0.813237522429747   0.475402761999979   0.110532280522110   1.0000000
N2   N   0.820276375532491   0.621129243185014   0.111506104599945   1.0000000
N2   N   0.820672169446009   0.768999430873329   0.111406033709216   1.0000000
Se2   Se   0.524536324518010   0.480086039085466   0.111410087452523   1.0000000


