data_1
_audit_creation_method   'vasp2cif'
_cell_length_a    14.93631414619966
_cell_length_b    14.936314146199727
_cell_length_c    13.341276283792837
_cell_angle_alpha    90.0
_cell_angle_beta    90.0
_cell_angle_gamma    119.99999999999984

_symmetry_space_group_name_H-M    'P 1'
loop_
_atom_site_label
_atom_site_type_symbol
_atom_site_fract_x
_atom_site_fract_y
_atom_site_fract_z
_atom_site_occupancy
Al2   Al   0.470953467501600   0.402143400417465   0.375000000000000   1.0000000
N2   N   0.111115773958577   0.055555299840750   0.124922567552571   1.0000000
N2   N   0.611196091595890   0.555671696706731   0.123802132040196   1.0000000
N2   N   0.444459820130524   0.055548785369109   0.124947567780073   1.0000000
N2   N   0.944461384605615   0.555560204109747   0.125055468689818   1.0000000
N2   N   0.777785869006900   0.055559601170118   0.125003462307987   1.0000000
N2   N   0.111121489707782   0.722227411520556   0.624990233898247   1.0000000
N2   N   0.444459820130524   0.722244368094751   0.625052432219927   1.0000000
N2   N   0.277781714239286   0.222216560166215   0.625125219215611   1.0000000
N2   N   0.777813222855403   0.722258332646872   0.625062096680112   1.0000000
N2   N   0.611136007537670   0.222210109463474   0.625145317949819   1.0000000
N2   N   0.944453466493194   0.222224981116184   0.625005998652309   1.0000000
N2   N   0.277789148864935   0.722230166764984   0.124997099749456   1.0000000
N2   N   0.111120511872337   0.222226922602833   0.124909990044519   1.0000000
N2   N   0.444475421875915   0.222214659273810   0.124867285553042   1.0000000
N2   N   0.611136007537670   0.722259231407524   0.124854682050181   1.0000000
N2   N   0.944461384605615   0.722234513829203   0.125055468689818   1.0000000
N2   N   0.777792904278573   0.222219867219606   0.125052782212288   1.0000000
N2   N   0.111120356999726   0.888893581186709   0.625006912939573   1.0000000
N2   N   0.444455877818533   0.888894605575931   0.625010904237001   1.0000000
N2   N   0.277781714239286   0.388898487406399   0.625125219215611   1.0000000
N2   N   0.611196091595890   0.388857728222488   0.626197867959804   1.0000000
N2   N   0.777792904278573   0.888906370392296   0.624947217787712   1.0000000
N2   N   0.944460803954288   0.388891346989989   0.624959315455704   1.0000000
N2   N   0.111115773958577   0.388893807451156   0.124922567552571   1.0000000
N2   N   0.277789148864935   0.888892315433280   0.124997099749456   1.0000000
N2   N   0.611119576643771   0.888901217839945   0.125030095374593   1.0000000
N2   N   0.444495784515294   0.388914558924311   0.126977571709538   1.0000000
N2   N   0.944460803954288   0.888902790297626   0.125040684544297   1.0000000
N2   N   0.777813222855403   0.388888223541860   0.124937903319888   1.0000000
N2   N   0.277789507550832   0.555567833143185   0.625038560214620   1.0000000
N2   N   0.111115773958577   0.055555299840750   0.625077432447430   1.0000000
N2   N   0.611196091595890   0.555671696706731   0.626197867959804   1.0000000
N2   N   0.444459820130524   0.055548785369109   0.625052432219927   1.0000000
N2   N   0.944461384605615   0.555560204109747   0.624944531310182   1.0000000
N2   N   0.111120356999726   0.555560109146346   0.124993087060426   1.0000000
N2   N   0.777785869006900   0.055559601170118   0.624996537692012   1.0000000
N2   N   0.277789507550832   0.055555007740982   0.124961439785381   1.0000000
N2   N   0.444475421875915   0.555594095935441   0.124867285553042   1.0000000
N2   N   0.777806239637481   0.555569786485407   0.124812632710146   1.0000000
N2   N   0.611119576643771   0.055551692137155   0.125030095374593   1.0000000
N2   N   0.444475421875915   0.555594095935441   0.625132714446957   1.0000000
N2   N   0.944453466493194   0.055561818710345   0.124994001347691   1.0000000
N2   N   0.277789148864935   0.722230166764984   0.625002900250544   1.0000000
N2   N   0.111120511872337   0.222226922602833   0.625090009955481   1.0000000
N2   N   0.444475421875915   0.222214659273810   0.625132714446957   1.0000000
N2   N   0.611136007537670   0.722259231407524   0.625145317949819   1.0000000
N2   N   0.944461384605615   0.722234513829203   0.624944531310182   1.0000000
N2   N   0.777792904278573   0.222219867219606   0.624947217787712   1.0000000
N2   N   0.111121489707782   0.722227411520556   0.125009766101754   1.0000000
N2   N   0.444459820130524   0.722244368094751   0.124947567780073   1.0000000
N2   N   0.277781714239286   0.222216560166215   0.124874780784388   1.0000000
N2   N   0.777813222855403   0.722258332646872   0.124937903319888   1.0000000
N2   N   0.611136007537670   0.222210109463474   0.124854682050181   1.0000000
N2   N   0.944453466493194   0.222224981116184   0.124994001347691   1.0000000
N2   N   0.111115773958577   0.388893807451156   0.625077432447430   1.0000000
N2   N   0.277789148864935   0.888892315433280   0.625002900250544   1.0000000
N2   N   0.611119576643771   0.888901217839945   0.624969904625407   1.0000000
N2   N   0.444495784515294   0.388914558924311   0.623022428290463   1.0000000
N2   N   0.944460803954288   0.888902790297626   0.624959315455704   1.0000000
N2   N   0.111120356999726   0.888893581186709   0.124993087060426   1.0000000
N2   N   0.777813222855403   0.388888223541860   0.625062096680112   1.0000000
N2   N   0.444455877818533   0.888894605575931   0.124989095763000   1.0000000
N2   N   0.277781714239286   0.388898487406399   0.124874780784388   1.0000000
N2   N   0.277789507550832   0.555567833143185   0.124961439785381   1.0000000
N2   N   0.611196091595890   0.388857728222488   0.123802132040196   1.0000000
N2   N   0.777792904278573   0.888906370392296   0.125052782212288   1.0000000
N2   N   0.944460803954288   0.388891346989989   0.125040684544297   1.0000000
N2   N   0.111120356999726   0.555560109146346   0.625006912939573   1.0000000
N2   N   0.277789507550832   0.055555007740982   0.625038560214620   1.0000000
N2   N   0.777806239637481   0.555569786485407   0.625187367289854   1.0000000
N2   N   0.611119576643771   0.055551692137155   0.624969904625407   1.0000000
N2   N   0.944453466493194   0.055561818710345   0.625005998652309   1.0000000
N2   N   0.054857124725530   0.110658441037191   0.375000000000000   1.0000000
N2   N   0.554706909764806   0.606634712657264   0.375000000000000   1.0000000
N2   N   0.388101234244338   0.107681449066826   0.375000000000000   1.0000000
N2   N   0.890462881328872   0.611898107331107   0.375000000000000   1.0000000
N2   N   0.721925527439690   0.111297186546620   0.375000000000000   1.0000000
N2   N   0.055559939150365   0.777781061000242   0.875000000000000   1.0000000
N2   N   0.388893601630235   0.777781439002634   0.875000000000000   1.0000000
N2   N   0.222226228974499   0.277779781153917   0.875000000000000   1.0000000
N2   N   0.722227031358670   0.777779781700818   0.875000000000000   1.0000000
N2   N   0.555556035707983   0.277774578862089   0.875000000000000   1.0000000
N2   N   0.888895175425622   0.277781952001318   0.875000000000000   1.0000000
N2   N   0.221979657266554   0.777656495299946   0.375000000000000   1.0000000
N2   N   0.054857124725530   0.277532017021675   0.375000000000000   1.0000000
N2   N   0.385626451414450   0.268810190983810   0.375000000000000   1.0000000
N2   N   0.555611287831300   0.776511420522054   0.375000000000000   1.0000000
N2   N   0.888398216511424   0.777039699630901   0.375000000000000   1.0000000
N2   N   0.721683924474961   0.278617359274045   0.375000000000000   1.0000000
N2   N   0.055558698807236   0.944446260914421   0.875000000000000   1.0000000
N2   N   0.388893601630235   0.944445495960936   0.875000000000000   1.0000000
N2   N   0.222225157420425   0.444445494255362   0.875000000000000   1.0000000
N2   N   0.555550158929167   0.444441746131248   0.875000000000000   1.0000000
N2   N   0.722225909166628   0.944446067267619   0.875000000000000   1.0000000
N2   N   0.888895994804808   0.444447630290140   0.875000000000000   1.0000000
N2   N   0.054475149576157   0.444414441771500   0.375000000000000   1.0000000
N2   N   0.221532659656829   0.943421988002511   0.375000000000000   1.0000000
N2   N   0.555698418712705   0.944515876023016   0.375000000000000   1.0000000
N2   N   0.385626451414450   0.450149593763976   0.375000000000000   1.0000000
N2   N   0.888171800550763   0.943792345744337   0.375000000000000   1.0000000
N2   N   0.723079565427147   0.446711896498296   0.375000000000000   1.0000000
N2   N   0.222224740664987   0.611111742828449   0.875000000000000   1.0000000
N2   N   0.055558865617979   0.111111969171152   0.875000000000000   1.0000000
N2   N   0.555556035707983   0.611114790179230   0.875000000000000   1.0000000
N2   N   0.388893069130594   0.111111936891093   0.875000000000000   1.0000000
N2   N   0.888896989801562   0.611115161567453   0.875000000000000   1.0000000
N2   N   0.055576912464086   0.611199610198728   0.375000000000000   1.0000000
N2   N   0.722225909166628   0.111113175232345   0.875000000000000   1.0000000
N2   N   0.220333308504231   0.108892784749028   0.375000000000000   1.0000000
N2   N   0.388101234244338   0.613753118510856   0.375000000000000   1.0000000
N2   N   0.723079565427147   0.609701002262186   0.375000000000000   1.0000000
N2   N   0.555611287831300   0.112433200642582   0.375000000000000   1.0000000
N2   N   0.388893069130594   0.611114465572844   0.875000000000000   1.0000000
N2   N   0.888288141019136   0.110810737176239   0.375000000000000   1.0000000
N2   N   0.222225853490778   0.777779593412057   0.875000000000000   1.0000000
N2   N   0.055558865617979   0.277780229780162   0.875000000000000   1.0000000
N2   N   0.388898095738491   0.277786269238279   0.875000000000000   1.0000000
N2   N   0.555558468701078   0.777781248014872   0.875000000000000   1.0000000
N2   N   0.888895994804808   0.777781697848003   0.875000000000000   1.0000000
N2   N   0.722227031358670   0.277780582991188   0.875000000000000   1.0000000
N2   N   0.055576912464086   0.777710635598693   0.375000000000000   1.0000000
N2   N   0.388797149177091   0.778462550263959   0.375000000000000   1.0000000
N2   N   0.222029788540869   0.277681560937103   0.375000000000000   1.0000000
N2   N   0.721683924474961   0.776399898534252   0.375000000000000   1.0000000
N2   N   0.554706909764806   0.281405530440877   0.375000000000000   1.0000000
N2   N   0.888171800550763   0.277712788139762   0.375000000000000   1.0000000
N2   N   0.055558698807236   0.444445771226142   0.875000000000000   1.0000000
N2   N   0.222224740664987   0.944446331169875   0.875000000000000   1.0000000
N2   N   0.555558660280934   0.944445996807131   0.875000000000000   1.0000000
N2   N   0.388898095738491   0.444445159833548   0.875000000000000   1.0000000
N2   N   0.888895175425622   0.944446556757640   0.875000000000000   1.0000000
N2   N   0.054475149576157   0.943394041137984   0.375000000000000   1.0000000
N2   N   0.722229565619999   0.444448621747230   0.875000000000000   1.0000000
N2   N   0.388797149177091   0.943667932246467   0.375000000000000   1.0000000
N2   N   0.220333308504231   0.444773857088539   0.375000000000000   1.0000000
N2   N   0.221532659656829   0.611444004987654   0.375000000000000   1.0000000
N2   N   0.721925527439690   0.943961674226406   0.375000000000000   1.0000000
N2   N   0.888398216511424   0.444691850213858   0.375000000000000   1.0000000
N2   N   0.055559939150365   0.611112211483460   0.875000000000000   1.0000000
N2   N   0.222225157420425   0.111112996498399   0.875000000000000   1.0000000
N2   N   0.722229565619999   0.611114277206105   0.875000000000000   1.0000000
N2   N   0.555558468701078   0.111110554019541   0.875000000000000   1.0000000
N2   N   0.888894728074893   0.111114030704118   0.875000000000000   1.0000000
B2   B   0.109829923932201   0.054400905029129   0.375000000000000   1.0000000
B2   B   0.613734930235738   0.551616090935270   0.375000000000000   1.0000000
B2   B   0.444391183476975   0.054170494688840   0.375000000000000   1.0000000
B2   B   0.944999105406473   0.555741469026816   0.375000000000000   1.0000000
B2   B   0.777313848699422   0.055323591016379   0.375000000000000   1.0000000
B2   B   0.111117870554268   0.722225601943798   0.875000000000000   1.0000000
B2   B   0.444443537103056   0.722222557599270   0.875000000000000   1.0000000
B2   B   0.277773524428746   0.222221608694045   0.875000000000000   1.0000000
B2   B   0.777784300673971   0.722224816675308   0.875000000000000   1.0000000
B2   B   0.611110735446051   0.222219953636435   0.875000000000000   1.0000000
B2   B   0.944455939785105   0.222226725126318   0.875000000000000   1.0000000
B2   B   0.277575021016810   0.722399324334433   0.375000000000000   1.0000000
B2   B   0.111013671633222   0.222173502483275   0.375000000000000   1.0000000
B2   B   0.442169499844483   0.217619964666842   0.375000000000000   1.0000000
B2   B   0.610730753519337   0.719583411297492   0.375000000000000   1.0000000
B2   B   0.944999105406473   0.722590969712993   0.375000000000000   1.0000000
B2   B   0.777156145681023   0.222426190903051   0.375000000000000   1.0000000
B2   B   0.111117515804590   0.888895803837069   0.875000000000000   1.0000000
B2   B   0.444445153531272   0.888889243432300   0.875000000000000   1.0000000
B2   B   0.277773524428746   0.388885249068030   0.875000000000000   1.0000000
B2   B   0.611110185739324   0.388887694159016   0.875000000000000   1.0000000
B2   B   0.777786111622698   0.888894394140986   0.875000000000000   1.0000000
B2   B   0.944455308646309   0.388891694728596   0.875000000000000   1.0000000
B2   B   0.109829923932201   0.388762352236401   0.375000000000000   1.0000000
B2   B   0.277575021016810   0.888509030015705   0.375000000000000   1.0000000
B2   B   0.610971458509105   0.888179706465724   0.375000000000000   1.0000000
B2   B   0.943669961963745   0.888211990368128   0.375000000000000   1.0000000
B2   B   0.777571857056549   0.389464302425630   0.375000000000000   1.0000000
B2   B   0.277778853732008   0.555553006347843   0.875000000000000   1.0000000
B2   B   0.111116985266929   0.055561651909764   0.875000000000000   1.0000000
B2   B   0.611110185739324   0.555555824913637   0.875000000000000   1.0000000
B2   B   0.444443537103056   0.055554312837123   0.875000000000000   1.0000000
B2   B   0.944454559829337   0.555559672847109   0.875000000000000   1.0000000
B2   B   0.110688356914958   0.555516857636906   0.375000000000000   1.0000000
B2   B   0.777786774312943   0.055560053823140   0.875000000000000   1.0000000
B2   B   0.276822182799803   0.054177190678216   0.375000000000000   1.0000000
B2   B   0.442169499844483   0.557882868510977   0.375000000000000   1.0000000
B2   B   0.780671028141941   0.557002180737637   0.375000000000000   1.0000000
B2   B   0.610971458509105   0.056125085376710   0.375000000000000   1.0000000
B2   B   0.444445373549956   0.555559906634781   0.875000000000000   1.0000000
B2   B   0.943896084280711   0.055203909297234   0.375000000000000   1.0000000
B2   B   0.277781044166073   0.722222239240216   0.875000000000000   1.0000000
B2   B   0.111115938972182   0.222224636152755   0.875000000000000   1.0000000
B2   B   0.444445373549956   0.222218800248510   0.875000000000000   1.0000000
B2   B   0.611110735446051   0.722224115142945   0.875000000000000   1.0000000
B2   B   0.944454559829337   0.722228220315562   0.875000000000000   1.0000000
B2   B   0.777786111622698   0.222225050815041   0.875000000000000   1.0000000
B2   B   0.111064994991849   0.722199164162589   0.375000000000000   1.0000000
B2   B   0.444391183476975   0.723554022121471   0.375000000000000   1.0000000
B2   B   0.276537500917717   0.220147153793600   0.375000000000000   1.0000000
B2   B   0.777571857056549   0.721440887964249   0.375000000000000   1.0000000
B2   B   0.610730753519337   0.224480675555175   0.375000000000000   1.0000000
B2   B   0.943896084280711   0.222025508316813   0.375000000000000   1.0000000
B2   B   0.111116985266929   0.388888666690493   0.875000000000000   1.0000000
B2   B   0.277781044166073   0.888892138259185   0.875000000000000   1.0000000
B2   B   0.611112790838584   0.888890995817343   0.875000000000000   1.0000000
B2   B   0.444448319336262   0.388890826334795   0.875000000000000   1.0000000
B2   B   0.944455308646309   0.888896947251042   0.875000000000000   1.0000000
B2   B   0.110688356914958   0.888504832611380   0.375000000000000   1.0000000
B2   B   0.777784300673971   0.388892817331991   0.875000000000000   1.0000000
B2   B   0.444574472320761   0.888953902827045   0.375000000000000   1.0000000
B2   B   0.276537500917718   0.389723680457447   0.375000000000000   1.0000000
B2   B   0.276822182799803   0.555978325454923   0.375000000000000   1.0000000
B2   B   0.613734930235738   0.395452172633796   0.375000000000000   1.0000000
B2   B   0.777156145681023   0.888063288111299   0.375000000000000   1.0000000
B2   B   0.943669961963745   0.388791304928946   0.375000000000000   1.0000000
B2   B   0.111117515804590   0.555555045300849   0.875000000000000   1.0000000
B2   B   0.277778853732008   0.055559180717501   0.875000000000000   1.0000000
B2   B   0.777783236064371   0.555558284698853   0.875000000000000   1.0000000
B2   B   0.611112790838584   0.055555128354569   0.875000000000000   1.0000000
B2   B   0.944455939785105   0.055562547992123   0.875000000000000   1.0000000
B2   B   0.055584294079137   0.111131499889837   0.124992517115170   1.0000000
B2   B   0.555587286633757   0.611150911866829   0.124489644306733   1.0000000
B2   B   0.388882897477823   0.111085486479732   0.124965429320312   1.0000000
B2   B   0.888917515880530   0.611125424606936   0.124982346423797   1.0000000
B2   B   0.722226134915467   0.111103002936379   0.125009635465297   1.0000000
B2   B   0.055587715775513   0.777798741339649   0.624995287457635   1.0000000
B2   B   0.388894177864010   0.777784769234187   0.625007746429884   1.0000000
B2   B   0.222229070865820   0.277781202099578   0.624982289755025   1.0000000
B2   B   0.722238904643060   0.777810550182012   0.625087583480406   1.0000000
B2   B   0.555587286633757   0.277769708100263   0.625510355693265   1.0000000
B2   B   0.888916407938313   0.277775803495053   0.624985903566608   1.0000000
B2   B   0.222243689991755   0.777788511662545   0.125000618994793   1.0000000
B2   B   0.055584294079137   0.277786127522635   0.124992517115170   1.0000000
B2   B   0.388799291314433   0.277612495665827   0.125645804758025   1.0000000
B2   B   0.555554007064453   0.777796657996463   0.124977251363902   1.0000000
B2   B   0.888930818091250   0.777815284025626   0.124997967201502   1.0000000
B2   B   0.722238904643060   0.277761687794383   0.124912416519593   1.0000000
B2   B   0.055586466506861   0.944471640870996   0.624999725422510   1.0000000
B2   B   0.388894177864010   0.944442741963158   0.625007746429884   1.0000000
B2   B   0.222228309840429   0.444452758458148   0.625031852592207   1.0000000
B2   B   0.555821246234992   0.444577289784160   0.624664004812799   1.0000000
B2   B   0.722226134915467   0.944456465312423   0.624990364534703   1.0000000
B2   B   0.888930818091250   0.444448867398959   0.625002032798499   1.0000000
B2   B   0.055586466506861   0.444448158969193   0.125000274577490   1.0000000
B2   B   0.222240678824816   0.944458385013849   0.125002639066752   1.0000000
B2   B   0.555552466897084   0.944442900115207   0.125008358490842   1.0000000
B2   B   0.388799291314433   0.444520128981941   0.125645804758025   1.0000000
B2   B   0.888916407938313   0.944473937776595   0.125014096433392   1.0000000
B2   B   0.722259423243563   0.444444455072165   0.124430280420993   1.0000000
B2   B   0.222240678824816   0.611115627144303   0.624997360933248   1.0000000
B2   B   0.055584294079137   0.111131499889837   0.625007482884830   1.0000000
B2   B   0.555587286633757   0.611150911866829   0.625510355693265   1.0000000
B2   B   0.388882897477823   0.111085486479732   0.625034570679688   1.0000000
B2   B   0.888917515880530   0.611125424606936   0.625017653576203   1.0000000
B2   B   0.055587715775513   0.611122307769199   0.125004712542365   1.0000000
B2   B   0.722226134915467   0.111103002936379   0.624990364534703   1.0000000
B2   B   0.222228309840429   0.111108884715617   0.124968147407793   1.0000000
B2   B   0.388882897477823   0.611130744331433   0.124965429320312   1.0000000
B2   B   0.722259423243563   0.611148301504734   0.124430280420993   1.0000000
B2   B   0.555554007064453   0.111090682401325   0.124977251363902   1.0000000
B2   B   0.388882897477823   0.611130744331433   0.625034570679688   1.0000000
B2   B   0.888909984063258   0.111121658698300   0.124998716657970   1.0000000
B2   B   0.222243689991755   0.777788511662545   0.624999381005208   1.0000000
B2   B   0.055584294079137   0.277786127522635   0.625007482884830   1.0000000
B2   B   0.388799291314433   0.277612495665827   0.624354195241975   1.0000000
B2   B   0.555554007064453   0.777796657996463   0.625022748636099   1.0000000
B2   B   0.888930818091250   0.777815284025626   0.625002032798499   1.0000000
B2   B   0.722238904643060   0.277761687794383   0.625087583480406   1.0000000
B2   B   0.055587715775513   0.777798741339649   0.125004712542365   1.0000000
B2   B   0.388894177864010   0.777784769234187   0.124992253570116   1.0000000
B2   B   0.222229070865820   0.277781202099578   0.125017710244974   1.0000000
B2   B   0.722238904643060   0.777810550182012   0.124912416519593   1.0000000
B2   B   0.555587286633757   0.277769708100263   0.124489644306733   1.0000000
B2   B   0.888916407938313   0.277775803495053   0.125014096433392   1.0000000
B2   B   0.055586466506861   0.444448158969193   0.624999725422510   1.0000000
B2   B   0.222240678824816   0.944458385013849   0.624997360933248   1.0000000
B2   B   0.555552466897084   0.944442900115207   0.624991641509158   1.0000000
B2   B   0.388799291314433   0.444520128981941   0.624354195241975   1.0000000
B2   B   0.888916407938313   0.944473937776595   0.624985903566608   1.0000000
B2   B   0.055586466506861   0.944471640870996   0.125000274577490   1.0000000
B2   B   0.722259423243563   0.444444455072165   0.625569719579007   1.0000000
B2   B   0.388894177864010   0.944442741963158   0.124992253570116   1.0000000
B2   B   0.222228309840429   0.444452758458148   0.124968147407793   1.0000000
B2   B   0.222240678824816   0.611115627144303   0.125002639066752   1.0000000
B2   B   0.555821246234992   0.444577289784160   0.125335995187201   1.0000000
B2   B   0.722226134915467   0.944456465312423   0.125009635465297   1.0000000
B2   B   0.888930818091250   0.444448867398959   0.124997967201502   1.0000000
B2   B   0.055587715775513   0.611122307769199   0.624995287457635   1.0000000
B2   B   0.222228309840429   0.111108884715617   0.625031852592207   1.0000000
B2   B   0.722259423243563   0.611148301504734   0.625569719579007   1.0000000
B2   B   0.555554007064453   0.111090682401325   0.625022748636099   1.0000000
B2   B   0.888909984063258   0.111121658698300   0.625001283342030   1.0000000


