data_1
_audit_creation_method   'vasp2cif'
_cell_length_a    14.93631414619966
_cell_length_b    14.936314146199727
_cell_length_c    13.341276283792837
_cell_angle_alpha    90.0
_cell_angle_beta    90.0
_cell_angle_gamma    119.99999999999984

_symmetry_space_group_name_H-M    'P 1'
loop_
_atom_site_label
_atom_site_type_symbol
_atom_site_fract_x
_atom_site_fract_y
_atom_site_fract_z
_atom_site_occupancy
Sn2   Sn   0.480824733225217   0.407079033279274   0.375000000000000   1.0000000
N2   N   0.111298530088016   0.055633466675143   0.124783056122379   1.0000000
N2   N   0.611305222510071   0.555697804558791   0.129446900277925   1.0000000
N2   N   0.444558078262906   0.055591800266571   0.125037597544567   1.0000000
N2   N   0.944592746462804   0.555637601000916   0.125285918255234   1.0000000
N2   N   0.777916124347375   0.055624728840352   0.124922409570848   1.0000000
N2   N   0.111245284156170   0.722289308744750   0.624898442358009   1.0000000
N2   N   0.444558078262906   0.722299611329674   0.624962402455438   1.0000000
N2   N   0.278025303751683   0.222328212207292   0.622648650746023   1.0000000
N2   N   0.777931094170632   0.722293119240287   0.624234996992654   1.0000000
N2   N   0.611224141954687   0.222267318416390   0.624152845672163   1.0000000
N2   N   0.944624315102941   0.222319879390098   0.625198607647531   1.0000000
N2   N   0.277897687820770   0.722295783694308   0.124891750093119   1.0000000
N2   N   0.111356198919602   0.222344766126466   0.125176500337058   1.0000000
N2   N   0.444600522418512   0.222279579954988   0.128001502386865   1.0000000
N2   N   0.611224141954687   0.722290156871631   0.125847154327842   1.0000000
N2   N   0.944592746462804   0.722288478795222   0.125285918255234   1.0000000
N2   N   0.777911898304731   0.222302236595646   0.125000874027004   1.0000000
N2   N   0.111251582353891   0.888941691936312   0.625112546069363   1.0000000
N2   N   0.444552483131386   0.888942908232365   0.625265947513726   1.0000000
N2   N   0.278025303751683   0.389030424877725   0.622648650746023   1.0000000
N2   N   0.611305222510071   0.388940751284604   0.620553099722069   1.0000000
N2   N   0.777911898304731   0.888942995042415   0.624999125972998   1.0000000
N2   N   0.944604814956455   0.388981836402042   0.625138591097304   1.0000000
N2   N   0.111298530088016   0.388998396746202   0.124783056122379   1.0000000
N2   N   0.277897687820770   0.888935237459788   0.124891750093119   1.0000000
N2   N   0.611222564879780   0.888950915194149   0.124836774608406   1.0000000
N2   N   0.444804781030035   0.389069057181681   0.137507773883336   1.0000000
N2   N   0.944604814956455   0.888956311887745   0.124861408902701   1.0000000
N2   N   0.777931094170632   0.388971308263674   0.125765003007350   1.0000000
N2   N   0.277922848236172   0.555657874484537   0.624665778341037   1.0000000
N2   N   0.111298530088016   0.055633466675143   0.625216943877614   1.0000000
N2   N   0.611305222510071   0.555697804558791   0.620553099722069   1.0000000
N2   N   0.444558078262906   0.055591800266571   0.624962402455438   1.0000000
N2   N   0.944592746462804   0.555637601000916   0.624714081744764   1.0000000
N2   N   0.111251582353891   0.555643223750906   0.124887453930637   1.0000000
N2   N   0.777916124347375   0.055624728840352   0.625077590429155   1.0000000
N2   N   0.277922848236172   0.055598307084969   0.125334221658964   1.0000000
N2   N   0.444600522418512   0.555654275796860   0.128001502386865   1.0000000
N2   N   0.777928093884646   0.555630713608995   0.126614419552779   1.0000000
N2   N   0.611222564879780   0.055604983018957   0.124836774608406   1.0000000
N2   N   0.444600522418512   0.555654275796860   0.621998497613138   1.0000000
N2   N   0.944624315102941   0.055637769046172   0.124801392352476   1.0000000
N2   N   0.277897687820770   0.722295783694308   0.625108249906884   1.0000000
N2   N   0.111356198919602   0.222344766126466   0.624823499662943   1.0000000
N2   N   0.444600522418512   0.222279579954988   0.621998497613138   1.0000000
N2   N   0.611224141954687   0.722290156871631   0.624152845672163   1.0000000
N2   N   0.944592746462804   0.722288478795222   0.624714081744764   1.0000000
N2   N   0.777911898304731   0.222302236595646   0.624999125972998   1.0000000
N2   N   0.111245284156170   0.722289308744750   0.125101557641995   1.0000000
N2   N   0.444558078262906   0.722299611329674   0.125037597544567   1.0000000
N2   N   0.278025303751683   0.222328212207292   0.127351349253980   1.0000000
N2   N   0.777931094170632   0.722293119240287   0.125765003007350   1.0000000
N2   N   0.611224141954687   0.222267318416390   0.125847154327842   1.0000000
N2   N   0.944624315102941   0.222319879390098   0.124801392352476   1.0000000
N2   N   0.111298530088016   0.388998396746202   0.625216943877614   1.0000000
N2   N   0.277897687820770   0.888935237459788   0.625108249906884   1.0000000
N2   N   0.611222564879780   0.888950915194149   0.625163225391593   1.0000000
N2   N   0.444804781030035   0.389069057181681   0.612492226116659   1.0000000
N2   N   0.944604814956455   0.888956311887745   0.625138591097304   1.0000000
N2   N   0.111251582353891   0.888941691936312   0.124887453930637   1.0000000
N2   N   0.777931094170632   0.388971308263674   0.624234996992654   1.0000000
N2   N   0.444552483131386   0.888942908232365   0.124734052486279   1.0000000
N2   N   0.278025303751683   0.389030424877725   0.127351349253980   1.0000000
N2   N   0.277922848236172   0.555657874484537   0.125334221658964   1.0000000
N2   N   0.611305222510071   0.388940751284604   0.129446900277925   1.0000000
N2   N   0.777911898304731   0.888942995042415   0.125000874027004   1.0000000
N2   N   0.944604814956455   0.388981836402042   0.124861408902701   1.0000000
N2   N   0.111251582353891   0.555643223750906   0.625112546069363   1.0000000
N2   N   0.277922848236172   0.055598307084969   0.624665778341037   1.0000000
N2   N   0.777928093884646   0.555630713608995   0.623385580447221   1.0000000
N2   N   0.611222564879780   0.055604983018957   0.625163225391593   1.0000000
N2   N   0.944624315102941   0.055637769046172   0.625198607647531   1.0000000
N2   N   0.055576478760104   0.111175296952893   0.375000000000000   1.0000000
N2   N   0.553534144063664   0.615168036044809   0.375000000000000   1.0000000
N2   N   0.386209744680332   0.103582561051121   0.375000000000000   1.0000000
N2   N   0.887132847142999   0.610233090238171   0.375000000000000   1.0000000
N2   N   0.722348232917956   0.110590127922563   0.375000000000000   1.0000000
N2   N   0.055578269921851   0.777794679228552   0.875000000000000   1.0000000
N2   N   0.388928486679852   0.777793192919944   0.875000000000000   1.0000000
N2   N   0.222254185722820   0.277793759528079   0.875000000000000   1.0000000
N2   N   0.722259273859088   0.777803745894578   0.875000000000000   1.0000000
N2   N   0.555593837652611   0.277800454483812   0.875000000000000   1.0000000
N2   N   0.888922511536145   0.277787573286919   0.875000000000000   1.0000000
N2   N   0.219891353425583   0.776612343379460   0.375000000000000   1.0000000
N2   N   0.055576478760104   0.277734515140548   0.375000000000000   1.0000000
N2   N   0.384305265775234   0.263226621003432   0.375000000000000   1.0000000
N2   N   0.554803082001328   0.779967335255456   0.375000000000000   1.0000000
N2   N   0.888275029638479   0.777911158273380   0.375000000000000   1.0000000
N2   N   0.722153590732364   0.276312333217184   0.375000000000000   1.0000000
N2   N   0.055581396880068   0.944466691877764   0.875000000000000   1.0000000
N2   N   0.388928486679852   0.944468627093238   0.875000000000000   1.0000000
N2   N   0.222253922200581   0.444446625558112   0.875000000000000   1.0000000
N2   N   0.555573122965744   0.444453228149536   0.875000000000000   1.0000000
N2   N   0.722260580892140   0.944467985169931   0.875000000000000   1.0000000
N2   N   0.888917391358817   0.444450236910385   0.875000000000000   1.0000000
N2   N   0.054088038819045   0.444157917815177   0.375000000000000   1.0000000
N2   N   0.219655394818793   0.941664598529345   0.375000000000000   1.0000000
N2   N   0.554990162102722   0.944161747718029   0.375000000000000   1.0000000
N2   N   0.384305265775234   0.454411978105140   0.375000000000000   1.0000000
N2   N   0.888859620415774   0.944926456339023   0.375000000000000   1.0000000
N2   N   0.722522001049812   0.443948934181992   0.375000000000000   1.0000000
N2   N   0.222254821198628   0.611114673578244   0.875000000000000   1.0000000
N2   N   0.055582098105216   0.111128309415496   0.875000000000000   1.0000000
N2   N   0.555593837652611   0.611126716502142   0.875000000000000   1.0000000
N2   N   0.388934220369739   0.111149321233549   0.875000000000000   1.0000000
N2   N   0.888907725267082   0.611120529300207   0.875000000000000   1.0000000
N2   N   0.053392849610861   0.610318359442740   0.375000000000000   1.0000000
N2   N   0.722260580892140   0.111125929055545   0.875000000000000   1.0000000
N2   N   0.219774578853661   0.107858165648825   0.375000000000000   1.0000000
N2   N   0.386209744680332   0.615960516962547   0.375000000000000   1.0000000
N2   N   0.722522001049812   0.611906400201159   0.375000000000000   1.0000000
N2   N   0.554803082001328   0.108169080079211   0.375000000000000   1.0000000
N2   N   0.388934220369739   0.611118232469537   0.875000000000000   1.0000000
N2   N   0.889120646399474   0.111226989866410   0.375000000000000   1.0000000
N2   N   0.222251753647401   0.777792543490372   0.875000000000000   1.0000000
N2   N   0.055582098105216   0.277787122023054   0.875000000000000   1.0000000
N2   N   0.388933328132604   0.277818127954807   0.875000000000000   1.0000000
N2   N   0.555597920637413   0.777800441391425   0.875000000000000   1.0000000
N2   N   0.888917391358817   0.777800487781761   0.875000000000000   1.0000000
N2   N   0.722259273859088   0.277788861297833   0.875000000000000   1.0000000
N2   N   0.053392849610861   0.776407823501453   0.375000000000000   1.0000000
N2   N   0.387102103013911   0.778659797648047   0.375000000000000   1.0000000
N2   N   0.223142401788864   0.278237867561102   0.375000000000000   1.0000000
N2   N   0.722153590732364   0.779174590848513   0.375000000000000   1.0000000
N2   N   0.553534144063664   0.271699441352197   0.375000000000000   1.0000000
N2   N   0.888859620415774   0.277266497410092   0.375000000000000   1.0000000
N2   N   0.055581396880068   0.444448038335636   0.875000000000000   1.0000000
N2   N   0.222254821198628   0.944473480953703   0.875000000000000   1.0000000
N2   N   0.555594933814144   0.944464133573735   0.875000000000000   1.0000000
N2   N   0.388933328132604   0.444448533511128   0.875000000000000   1.0000000
N2   N   0.888922511536145   0.944468271582557   0.875000000000000   1.0000000
N2   N   0.054088038819045   0.943263454337191   0.375000000000000   1.0000000
N2   N   0.722245837286182   0.444452356230101   0.875000000000000   1.0000000
N2   N   0.387102103013911   0.941775638699200   0.375000000000000   1.0000000
N2   N   0.219774578853660   0.445249746538174   0.375000000000000   1.0000000
N2   N   0.219655394818793   0.611324129622780   0.375000000000000   1.0000000
N2   N   0.722348232917956   0.945091438328724   0.375000000000000   1.0000000
N2   N   0.888275029638479   0.443697204698450   0.375000000000000   1.0000000
N2   N   0.055578269921851   0.611116924026632   0.875000000000000   1.0000000
N2   N   0.222253922200581   0.111140629975805   0.875000000000000   1.0000000
N2   N   0.722245837286182   0.611126814389413   0.875000000000000   1.0000000
N2   N   0.555597920637413   0.111130812579322   0.875000000000000   1.0000000
N2   N   0.888922122201129   0.111127727767235   0.875000000000000   1.0000000
B2   B   0.109146950852394   0.053883839855498   0.375000000000000   1.0000000
B2   B   0.619077921576082   0.575602011274522   0.375000000000000   1.0000000
B2   B   0.443344218112639   0.050771670447106   0.375000000000000   1.0000000
B2   B   0.943458357603713   0.554769441755508   0.375000000000000   1.0000000
B2   B   0.778454709054808   0.055894021194074   0.375000000000000   1.0000000
B2   B   0.111155292512997   0.722244312923159   0.875000000000000   1.0000000
B2   B   0.444474466395250   0.722289522400730   0.875000000000000   1.0000000
B2   B   0.277689359857174   0.222163683858591   0.875000000000000   1.0000000
B2   B   0.777885905248360   0.722353622706776   0.875000000000000   1.0000000
B2   B   0.611187152156001   0.222162599407821   0.875000000000000   1.0000000
B2   B   0.944465887805604   0.222212099370233   0.875000000000000   1.0000000
B2   B   0.275766198106158   0.722138931739028   0.375000000000000   1.0000000
B2   B   0.111121576873254   0.222227455103293   0.375000000000000   1.0000000
B2   B   0.440097803009356   0.210682539824665   0.375000000000000   1.0000000
B2   B   0.612081352081261   0.728332193301289   0.375000000000000   1.0000000
B2   B   0.943458357603713   0.722022249181545   0.375000000000000   1.0000000
B2   B   0.778539284538280   0.220938567229573   0.375000000000000   1.0000000
B2   B   0.111135362797626   0.888912936072380   0.875000000000000   1.0000000
B2   B   0.444483676227768   0.888908504780553   0.875000000000000   1.0000000
B2   B   0.277689359857174   0.388859009331913   0.875000000000000   1.0000000
B2   B   0.611197442298355   0.388855478135760   0.875000000000000   1.0000000
B2   B   0.777857601330797   0.888995469406430   0.875000000000000   1.0000000
B2   B   0.944500882772670   0.388870192684439   0.875000000000000   1.0000000
B2   B   0.109146950852394   0.388596444330221   0.375000000000000   1.0000000
B2   B   0.275766198106158   0.886960599700457   0.375000000000000   1.0000000
B2   B   0.611581819111120   0.890723118643267   0.375000000000000   1.0000000
B2   B   0.943968716284620   0.889367446581426   0.375000000000000   1.0000000
B2   B   0.779347334626152   0.386709373980516   0.375000000000000   1.0000000
B2   B   0.277758887599249   0.555567728049726   0.875000000000000   1.0000000
B2   B   0.111087043500520   0.055550995747932   0.875000000000000   1.0000000
B2   B   0.611197442298355   0.555675297495924   0.875000000000000   1.0000000
B2   B   0.444474466395250   0.055518277327859   0.875000000000000   1.0000000
B2   B   0.944530039495056   0.555572415359961   0.875000000000000   1.0000000
B2   B   0.108971459169846   0.555056450296086   0.375000000000000   1.0000000
B2   B   0.777840936868309   0.055587135100823   0.875000000000000   1.0000000
B2   B   0.274623548715278   0.051432883531503   0.375000000000000   1.0000000
B2   B   0.440097803009356   0.562748596518030   0.375000000000000   1.0000000
B2   B   0.778565634914349   0.555949484123845   0.375000000000000   1.0000000
B2   B   0.611581819111120   0.054192033801182   0.375000000000000   1.0000000
B2   B   0.444441772094656   0.555621968541995   0.875000000000000   1.0000000
B2   B   0.944710110131929   0.056094937617069   0.375000000000000   1.0000000
B2   B   0.277797516057556   0.722241210885619   0.875000000000000   1.0000000
B2   B   0.111056652273846   0.222194992803589   0.875000000000000   1.0000000
B2   B   0.444441772094656   0.222153136886005   0.875000000000000   1.0000000
B2   B   0.611187152156001   0.722357886081508   0.875000000000000   1.0000000
B2   B   0.944530039495056   0.722290957468433   0.875000000000000   1.0000000
B2   B   0.777857601330797   0.222195465257703   0.875000000000000   1.0000000
B2   B   0.109168552788932   0.721250943061134   0.375000000000000   1.0000000
B2   B   0.443344218112639   0.725905880998867   0.375000000000000   1.0000000
B2   B   0.274295058982105   0.218005846202503   0.375000000000000   1.0000000
B2   B   0.779347334626152   0.725971293978972   0.375000000000000   1.0000000
B2   B   0.612081352081261   0.217082492113304   0.375000000000000   1.0000000
B2   B   0.944710110131929   0.221948505848196   0.375000000000000   1.0000000
B2   B   0.111087043500520   0.388869381085914   0.875000000000000   1.0000000
B2   B   0.277797516057556   0.888889638505259   0.875000000000000   1.0000000
B2   B   0.611177918379416   0.888963644601025   0.875000000000000   1.0000000
B2   B   0.444385063288595   0.388859198310959   0.875000000000000   1.0000000
B2   B   0.944500882772670   0.888964023421571   0.875000000000000   1.0000000
B2   B   0.108971459169846   0.887248342207105   0.375000000000000   1.0000000
B2   B   0.777885905248360   0.388865615874905   0.875000000000000   1.0000000
B2   B   0.443726275880445   0.888529804606882   0.375000000000000   1.0000000
B2   B   0.274295058982103   0.389622546112927   0.375000000000000   1.0000000
B2   B   0.274623548715278   0.556523998517113   0.375000000000000   1.0000000
B2   B   0.619077921576082   0.376809243634891   0.375000000000000   1.0000000
B2   B   0.778539284538280   0.890934050642038   0.375000000000000   1.0000000
B2   B   0.943968716284620   0.387934603036525   0.375000000000000   1.0000000
B2   B   0.111135362797626   0.555555760058576   0.875000000000000   1.0000000
B2   B   0.277758887599249   0.055524492882865   0.875000000000000   1.0000000
B2   B   0.777894659879293   0.555613996606317   0.875000000000000   1.0000000
B2   B   0.611177918379416   0.055547607111722   0.875000000000000   1.0000000
B2   B   0.944465887805604   0.055587121768709   0.875000000000000   1.0000000
B2   B   0.055680351231238   0.111147321199019   0.124555767439107   1.0000000
B2   B   0.555646563876887   0.611558384495607   0.126726071262006   1.0000000
B2   B   0.388803922312722   0.110741989500577   0.125338212944658   1.0000000
B2   B   0.889398902455181   0.611366117894264   0.125001145883591   1.0000000
B2   B   0.722368355094297   0.111112155483979   0.124531434357570   1.0000000
B2   B   0.055843086094164   0.777906074184939   0.625316517473333   1.0000000
B2   B   0.388906882074586   0.777899703367389   0.625564782819350   1.0000000
B2   B   0.222176851889583   0.277755092611459   0.623725902727927   1.0000000
B2   B   0.722485199687591   0.778092306154996   0.625132161407191   1.0000000
B2   B   0.555646563876887   0.277421512714622   0.623273928737991   1.0000000
B2   B   0.889118579381278   0.277847473343164   0.625506122580073   1.0000000
B2   B   0.222346175456875   0.777839754395099   0.124604469245474   1.0000000
B2   B   0.055680351231238   0.277866363365557   0.124555767439107   1.0000000
B2   B   0.388573889428902   0.277108338977578   0.130070653990758   1.0000000
B2   B   0.555603569390432   0.778030975957427   0.124654248682775   1.0000000
B2   B   0.889289536340531   0.778040569464125   0.124710550260733   1.0000000
B2   B   0.722485199687591   0.277726226865925   0.124867838592807   1.0000000
B2   B   0.055746497503936   0.944503750136019   0.625574698543211   1.0000000
B2   B   0.388906882074586   0.944340512040543   0.625564782819350   1.0000000
B2   B   0.222209793127785   0.444622062005420   0.624805743983816   1.0000000
B2   B   0.556214677585427   0.444774005459378   0.619992978962430   1.0000000
B2   B   0.722368355094297   0.944589532943652   0.625468565642432   1.0000000
B2   B   0.889289536340531   0.444582300209736   0.625289449739261   1.0000000
B2   B   0.055746497503936   0.444576080701245   0.124425301456787   1.0000000
B2   B   0.222289780053944   0.944347983446677   0.124595805163557   1.0000000
B2   B   0.555612786966149   0.944473060149728   0.124383193874674   1.0000000
B2   B   0.388573889428902   0.444798883784657   0.130070653990758   1.0000000
B2   B   0.889118579381278   0.944604439371451   0.124493877419928   1.0000000
B2   B   0.722831578749425   0.444627756042416   0.126097456155386   1.0000000
B2   B   0.222289780053944   0.611275129940603   0.625404194836434   1.0000000
B2   B   0.055680351231238   0.111147321199019   0.625444232560895   1.0000000
B2   B   0.555646563876887   0.611558384495607   0.623273928737991   1.0000000
B2   B   0.388803922312722   0.110741989500577   0.624661787055340   1.0000000
B2   B   0.889398902455181   0.611366117894264   0.624998854116407   1.0000000
B2   B   0.055843086094164   0.611270345242544   0.124683482526668   1.0000000
B2   B   0.722368355094297   0.111112155483979   0.625468565642432   1.0000000
B2   B   0.222209793127785   0.110921064455700   0.125194256016195   1.0000000
B2   B   0.388803922312722   0.611395266145495   0.125338212944658   1.0000000
B2   B   0.722831578749425   0.611537156040348   0.126097456155386   1.0000000
B2   B   0.555603569390432   0.110905926766332   0.124654248682775   1.0000000
B2   B   0.388803922312722   0.611395266145495   0.624661787055340   1.0000000
B2   B   0.889061059471903   0.111197196402624   0.124539197280838   1.0000000
B2   B   0.222346175456875   0.777839754395099   0.625395530754526   1.0000000
B2   B   0.055680351231238   0.277866363365557   0.625444232560895   1.0000000
B2   B   0.388573889428902   0.277108338977578   0.619929346009243   1.0000000
B2   B   0.555603569390432   0.778030975957427   0.625345751317224   1.0000000
B2   B   0.889289536340531   0.778040569464125   0.625289449739261   1.0000000
B2   B   0.722485199687591   0.277726226865925   0.625132161407191   1.0000000
B2   B   0.055843086094164   0.777906074184939   0.124683482526668   1.0000000
B2   B   0.388906882074586   0.777899703367389   0.124435217180646   1.0000000
B2   B   0.222176851889583   0.277755092611459   0.126274097272073   1.0000000
B2   B   0.722485199687591   0.778092306154996   0.124867838592807   1.0000000
B2   B   0.555646563876887   0.277421512714622   0.126726071262006   1.0000000
B2   B   0.889118579381278   0.277847473343164   0.124493877419928   1.0000000
B2   B   0.055746497503936   0.444576080701245   0.625574698543211   1.0000000
B2   B   0.222289780053944   0.944347983446677   0.625404194836434   1.0000000
B2   B   0.555612786966149   0.944473060149728   0.625616806125324   1.0000000
B2   B   0.388573889428902   0.444798883784657   0.619929346009243   1.0000000
B2   B   0.889118579381278   0.944604439371451   0.625506122580073   1.0000000
B2   B   0.055746497503936   0.944503750136019   0.124425301456787   1.0000000
B2   B   0.722831578749425   0.444627756042416   0.623902543844618   1.0000000
B2   B   0.388906882074586   0.944340512040543   0.124435217180646   1.0000000
B2   B   0.222209793127785   0.444622062005420   0.125194256016195   1.0000000
B2   B   0.222289780053944   0.611275129940603   0.124595805163557   1.0000000
B2   B   0.556214677585427   0.444774005459378   0.130007021037576   1.0000000
B2   B   0.722368355094297   0.944589532943652   0.124531434357570   1.0000000
B2   B   0.889289536340531   0.444582300209736   0.124710550260733   1.0000000
B2   B   0.055843086094164   0.611270345242544   0.625316517473333   1.0000000
B2   B   0.222209793127785   0.110921064455700   0.624805743983816   1.0000000
B2   B   0.722831578749425   0.611537156040348   0.623902543844618   1.0000000
B2   B   0.555603569390432   0.110905926766333   0.625345751317224   1.0000000
B2   B   0.889061059471903   0.111197196402624   0.625460802719158   1.0000000


