data_1
_audit_creation_method   'vasp2cif'
_cell_length_a    14.93631414619966
_cell_length_b    14.936314146199727
_cell_length_c    13.341276283792837
_cell_angle_alpha    90.0
_cell_angle_beta    90.0
_cell_angle_gamma    119.99999999999984

_symmetry_space_group_name_H-M    'P 1'
loop_
_atom_site_label
_atom_site_type_symbol
_atom_site_fract_x
_atom_site_fract_y
_atom_site_fract_z
_atom_site_occupancy
C2   C   0.444444444444443   0.388888888888886   0.375000000000000   1.0000000
N2   N   0.111110425977247   0.055557877983368   0.125014490290443   1.0000000
N2   N   0.611101125472488   0.555560870112076   0.125045110168889   1.0000000
N2   N   0.444447452006121   0.055557877983368   0.125014490290443   1.0000000
N2   N   0.944441838906320   0.555553250396807   0.125002233098074   1.0000000
N2   N   0.777777777777779   0.055555555555557   0.124990756664071   1.0000000
N2   N   0.111111111111114   0.722222222222221   0.625005128280159   1.0000000
N2   N   0.444447452006121   0.722222907356089   0.624985509709557   1.0000000
N2   N   0.277772463221260   0.222232207860847   0.624954889831110   1.0000000
N2   N   0.777775455349968   0.722222907356089   0.624985509709557   1.0000000
N2   N   0.611120857215819   0.222212476117517   0.625009823851396   1.0000000
N2   N   0.944438377856828   0.222221712474369   0.624999154108706   1.0000000
N2   N   0.277780082936529   0.722221921842849   0.125002233098074   1.0000000
N2   N   0.111091618901705   0.222212476117517   0.124990176148603   1.0000000
N2   N   0.444459744639588   0.222232207860847   0.125045110168889   1.0000000
N2   N   0.611120857215819   0.722241714431631   0.124990176148603   1.0000000
N2   N   0.944441838906320   0.722221921842849   0.125002233098074   1.0000000
N2   N   0.777783334617541   0.222221712474369   0.125000845891294   1.0000000
N2   N   0.111111411490487   0.888891494427008   0.624997766901926   1.0000000
N2   N   0.444444067705658   0.888888700519494   0.624996356929846   1.0000000
N2   N   0.277772463221260   0.388873588693741   0.624954889831110   1.0000000
N2   N   0.611101125472488   0.388873588693741   0.624954889831110   1.0000000
N2   N   0.777783334617541   0.888894955476501   0.624999154108706   1.0000000
N2   N   0.944444632813835   0.388889265627670   0.624996356929846   1.0000000
N2   N   0.111110425977247   0.388885881327208   0.125014490290443   1.0000000
N2   N   0.277780082936529   0.888891494427008   0.125002233098074   1.0000000
N2   N   0.611111620858967   0.888894955476501   0.125000845891294   1.0000000
N2   N   0.444444444444443   0.388888888888886   0.124888378880953   1.0000000
N2   N   0.944444632813835   0.888888700519494   0.125003643070154   1.0000000
N2   N   0.777775455349968   0.388885881327208   0.125014490290443   1.0000000
N2   N   0.277782123967117   0.555551209366219   0.624991653544819   1.0000000
N2   N   0.111110425977247   0.055557877983368   0.624985509709557   1.0000000
N2   N   0.611101125472488   0.555560870112076   0.624954889831110   1.0000000
N2   N   0.444447452006121   0.055557877983368   0.624985509709557   1.0000000
N2   N   0.944441838906320   0.555553250396807   0.624997766901926   1.0000000
N2   N   0.111111411490487   0.555553250396807   0.125002233098074   1.0000000
N2   N   0.777777777777779   0.055555555555557   0.625009243335929   1.0000000
N2   N   0.277782123967117   0.055564247934234   0.125008346455181   1.0000000
N2   N   0.444459744639588   0.555560870112076   0.125045110168889   1.0000000
N2   N   0.777769085399102   0.555551209366219   0.125008346455181   1.0000000
N2   N   0.611111620858967   0.055549998715795   0.125000845891294   1.0000000
N2   N   0.444459744639588   0.555560870112076   0.624954889831110   1.0000000
N2   N   0.944438377856828   0.055549998715795   0.125000845891294   1.0000000
N2   N   0.277780082936529   0.722221921842849   0.624997766901926   1.0000000
N2   N   0.111091618901705   0.222212476117517   0.625009823851396   1.0000000
N2   N   0.444459744639588   0.222232207860847   0.624954889831110   1.0000000
N2   N   0.611120857215819   0.722241714431631   0.625009823851396   1.0000000
N2   N   0.944441838906320   0.722221921842849   0.624997766901926   1.0000000
N2   N   0.777783334617541   0.222221712474369   0.624999154108706   1.0000000
N2   N   0.111111111111114   0.722222222222221   0.124994871719840   1.0000000
N2   N   0.444447452006121   0.722222907356089   0.125014490290443   1.0000000
N2   N   0.277772463221260   0.222232207860847   0.125045110168889   1.0000000
N2   N   0.777775455349968   0.722222907356089   0.125014490290443   1.0000000
N2   N   0.611120857215819   0.222212476117517   0.124990176148603   1.0000000
N2   N   0.944438377856828   0.222221712474369   0.125000845891294   1.0000000
N2   N   0.111110425977247   0.388885881327208   0.624985509709557   1.0000000
N2   N   0.277780082936529   0.888891494427008   0.624997766901926   1.0000000
N2   N   0.611111620858967   0.888894955476501   0.624999154108706   1.0000000
N2   N   0.444444444444443   0.388888888888886   0.625111621119047   1.0000000
N2   N   0.944444632813835   0.888888700519494   0.624996356929846   1.0000000
N2   N   0.111111411490487   0.888891494427008   0.125002233098074   1.0000000
N2   N   0.777775455349968   0.388885881327208   0.624985509709557   1.0000000
N2   N   0.444444067705658   0.888888700519494   0.125003643070154   1.0000000
N2   N   0.277772463221260   0.388873588693741   0.125045110168889   1.0000000
N2   N   0.277782123967117   0.555551209366219   0.125008346455181   1.0000000
N2   N   0.611101125472488   0.388873588693741   0.125045110168889   1.0000000
N2   N   0.777783334617541   0.888894955476501   0.125000845891294   1.0000000
N2   N   0.944444632813835   0.388889265627670   0.125003643070154   1.0000000
N2   N   0.111111411490487   0.555553250396807   0.624997766901926   1.0000000
N2   N   0.277782123967117   0.055564247934234   0.624991653544819   1.0000000
N2   N   0.777769085399102   0.555551209366219   0.624991653544819   1.0000000
N2   N   0.611111620858967   0.055549998715795   0.624999154108706   1.0000000
N2   N   0.944438377856828   0.055549998715795   0.624999154108706   1.0000000
N2   N   0.055768623573057   0.111240617052682   0.375000000000000   1.0000000
N2   N   0.555462746653481   0.610925493306961   0.375000000000000   1.0000000
N2   N   0.388897307177526   0.112073117085889   0.375000000000000   1.0000000
N2   N   0.888661550280968   0.610997441807155   0.375000000000000   1.0000000
N2   N   0.722184751508629   0.111148581824707   0.375000000000000   1.0000000
N2   N   0.055555103017899   0.777778230315437   0.875000000000000   1.0000000
N2   N   0.388889480913359   0.777779030664294   0.875000000000000   1.0000000
N2   N   0.222221453109467   0.277777393221401   0.875000000000000   1.0000000
N2   N   0.722223667045908   0.777778293439736   0.875000000000000   1.0000000
N2   N   0.555555940111935   0.277777393221401   0.875000000000000   1.0000000
N2   N   0.888889963659692   0.277779927319391   0.875000000000000   1.0000000
N2   N   0.222269784868346   0.777801559100840   0.375000000000000   1.0000000
N2   N   0.055768623573057   0.277861339853711   0.375000000000000   1.0000000
N2   N   0.390359414361683   0.280718828723373   0.375000000000000   1.0000000
N2   N   0.555471993479625   0.777564709760278   0.375000000000000   1.0000000
N2   N   0.888590827246128   0.777518527939031   0.375000000000000   1.0000000
N2   N   0.722092716280654   0.277861339853711   0.375000000000000   1.0000000
N2   N   0.055554302669041   0.944443783582400   0.875000000000000   1.0000000
N2   N   0.388889480913359   0.944443783582400   0.875000000000000   1.0000000
N2   N   0.222221788623119   0.444443983465114   0.875000000000000   1.0000000
N2   N   0.555555402135281   0.444444367734305   0.875000000000000   1.0000000
N2   N   0.722221724925682   0.944443449851364   0.875000000000000   1.0000000
N2   N   0.888889549750929   0.444443852419970   0.875000000000000   1.0000000
N2   N   0.055814805394305   0.444405632640433   0.375000000000000   1.0000000
N2   N   0.222335891526180   0.944671783052360   0.375000000000000   1.0000000
N2   N   0.555496084544649   0.944414708938989   0.375000000000000   1.0000000
N2   N   0.390359414361683   0.442973918971646   0.375000000000000   1.0000000
N2   N   0.888918624394340   0.944414708938989   0.375000000000000   1.0000000
N2   N   0.721260216247447   0.444436026155802   0.375000000000000   1.0000000
N2   N   0.222221955424234   0.611111377909101   0.875000000000000   1.0000000
N2   N   0.055555039893599   0.111109666287428   0.875000000000000   1.0000000
N2   N   0.555555940111935   0.611111880223869   0.875000000000000   1.0000000
N2   N   0.388889349868215   0.111111138491341   0.875000000000000   1.0000000
N2   N   0.888889422484860   0.611111377909101   0.875000000000000   1.0000000
N2   N   0.055531774232495   0.611063548464990   0.375000000000000   1.0000000
N2   N   0.722221724925682   0.111111608407654   0.875000000000000   1.0000000
N2   N   0.223175809908355   0.112073117085889   0.375000000000000   1.0000000
N2   N   0.388897307177526   0.610157523424980   0.375000000000000   1.0000000
N2   N   0.721260216247447   0.610157523424980   0.375000000000000   1.0000000
N2   N   0.555471993479625   0.111240617052682   0.375000000000000   1.0000000
N2   N   0.388889349868215   0.611111544710216   0.875000000000000   1.0000000
N2   N   0.888963830316071   0.111148581824707   0.375000000000000   1.0000000
N2   N   0.222223127297538   0.777778230315437   0.875000000000000   1.0000000
N2   N   0.055555039893599   0.277778706939507   0.875000000000000   1.0000000
N2   N   0.388888965599024   0.277777931198054   0.875000000000000   1.0000000
N2   N   0.555554626393829   0.777778293439736   0.875000000000000   1.0000000
N2   N   0.888889549750929   0.777779030664294   0.875000000000000   1.0000000
N2   N   0.722223667045908   0.277778706939507   0.875000000000000   1.0000000
N2   N   0.055531774232495   0.777801559100840   0.375000000000000   1.0000000
N2   N   0.388927700692895   0.777518527939031   0.375000000000000   1.0000000
N2   N   0.222407840026375   0.277870586679855   0.375000000000000   1.0000000
N2   N   0.722092716280654   0.777564709760278   0.375000000000000   1.0000000
N2   N   0.555462746653481   0.277870586679855   0.375000000000000   1.0000000
N2   N   0.888918624394340   0.277837248788687   0.375000000000000   1.0000000
N2   N   0.055554302669041   0.444443852419970   0.875000000000000   1.0000000
N2   N   0.222221955424234   0.944443910848469   0.875000000000000   1.0000000
N2   N   0.555553406013944   0.944443369673637   0.875000000000000   1.0000000
N2   N   0.388888965599024   0.444444367734305   0.875000000000000   1.0000000
N2   N   0.888889963659692   0.944443369673637   0.875000000000000   1.0000000
N2   N   0.055814805394305   0.944742506087200   0.375000000000000   1.0000000
N2   N   0.722222194841994   0.444443983465114   0.875000000000000   1.0000000
N2   N   0.388927700692895   0.944742506087200   0.375000000000000   1.0000000
N2   N   0.223175809908355   0.444436026155802   0.375000000000000   1.0000000
N2   N   0.222335891526180   0.610997441807155   0.375000000000000   1.0000000
N2   N   0.552614504609963   0.442973918971646   0.375000000000000   1.0000000
N2   N   0.722184751508629   0.944369503017257   0.375000000000000   1.0000000
N2   N   0.888590827246128   0.444405632640433   0.375000000000000   1.0000000
N2   N   0.055555103017899   0.611110206035798   0.875000000000000   1.0000000
N2   N   0.222221788623119   0.111111138491341   0.875000000000000   1.0000000
N2   N   0.722222194841994   0.611111544710216   0.875000000000000   1.0000000
N2   N   0.555554626393829   0.111109666287428   0.875000000000000   1.0000000
N2   N   0.888889883481965   0.111111608407654   0.875000000000000   1.0000000
B2   B   0.111690243281415   0.056075461430331   0.375000000000000   1.0000000
B2   B   0.609962773165798   0.554579884626545   0.375000000000000   1.0000000
B2   B   0.444385218148916   0.056075461430331   0.375000000000000   1.0000000
B2   B   0.944332753871678   0.555525223966259   0.375000000000000   1.0000000
B2   B   0.777777777777779   0.055555555555557   0.375000000000000   1.0000000
B2   B   0.111111111111114   0.722222222222221   0.875000000000000   1.0000000
B2   B   0.444444307147440   0.722220832202413   0.875000000000000   1.0000000
B2   B   0.277781917488768   0.222226368063829   0.875000000000000   1.0000000
B2   B   0.777776525054973   0.722220832202413   0.875000000000000   1.0000000
B2   B   0.611109332373457   0.222224000959879   0.875000000000000   1.0000000
B2   B   0.944445553671074   0.222223396532636   0.875000000000000   1.0000000
B2   B   0.277808109367077   0.722140863238756   0.375000000000000   1.0000000
B2   B   0.111345745472244   0.222339539402786   0.375000000000000   1.0000000
B2   B   0.444617111460746   0.223370560167537   0.375000000000000   1.0000000
B2   B   0.610993793930549   0.721987587861092   0.375000000000000   1.0000000
B2   B   0.944332753871678   0.722140863238756   0.375000000000000   1.0000000
B2   B   0.777736344560739   0.222310124350651   0.375000000000000   1.0000000
B2   B   0.111111119107157   0.888889489440028   0.875000000000000   1.0000000
B2   B   0.444444380612969   0.888888856973149   0.875000000000000   1.0000000
B2   B   0.277781917488768   0.388888882758268   0.875000000000000   1.0000000
B2   B   0.611106965269507   0.388888882758268   0.875000000000000   1.0000000
B2   B   0.777777842861562   0.888887779662254   0.875000000000000   1.0000000
B2   B   0.944444476360180   0.388888952720360   0.875000000000000   1.0000000
B2   B   0.111690243281415   0.388948115184412   0.375000000000000   1.0000000
B2   B   0.277808109367077   0.889000579461650   0.375000000000000   1.0000000
B2   B   0.611023208982685   0.888759553543417   0.375000000000000   1.0000000
B2   B   0.944470472879067   0.888862860454262   0.375000000000000   1.0000000
B2   B   0.777257871903005   0.388948115184412   0.375000000000000   1.0000000
B2   B   0.277778954441451   0.555554378891885   0.875000000000000   1.0000000
B2   B   0.111112501130923   0.055556808278362   0.875000000000000   1.0000000
B2   B   0.611106965269507   0.555551415844567   0.875000000000000   1.0000000
B2   B   0.444444307147440   0.055556808278362   0.875000000000000   1.0000000
B2   B   0.944443843893301   0.555554963000458   0.875000000000000   1.0000000
B2   B   0.111192470094580   0.555525223966259   0.375000000000000   1.0000000
B2   B   0.777777777777779   0.055555555555557   0.875000000000000   1.0000000
B2   B   0.277931877728319   0.055863755456637   0.375000000000000   1.0000000
B2   B   0.444617111460746   0.554579884626545   0.375000000000000   1.0000000
B2   B   0.777469577876698   0.555401455605017   0.375000000000000   1.0000000
B2   B   0.611023208982685   0.055596988772597   0.375000000000000   1.0000000
B2   B   0.444444450575061   0.555551415844567   0.875000000000000   1.0000000
B2   B   0.944573779789912   0.055596988772597   0.375000000000000   1.0000000
B2   B   0.277778370332878   0.722222214226179   0.875000000000000   1.0000000
B2   B   0.111114668586429   0.222224000959879   0.875000000000000   1.0000000
B2   B   0.444444450575061   0.222226368063829   0.875000000000000   1.0000000
B2   B   0.611109332373457   0.722218664746907   0.875000000000000   1.0000000
B2   B   0.944443843893301   0.722222214226179   0.875000000000000   1.0000000
B2   B   0.777777842861562   0.222223396532636   0.875000000000000   1.0000000
B2   B   0.111111111111114   0.722222222222221   0.375000000000000   1.0000000
B2   B   0.444385218148916   0.721643090051921   0.375000000000000   1.0000000
B2   B   0.278753448706791   0.223370560167537   0.375000000000000   1.0000000
B2   B   0.777257871903005   0.721643090051921   0.375000000000000   1.0000000
B2   B   0.610993793930549   0.222339539402786   0.375000000000000   1.0000000
B2   B   0.944573779789912   0.222310124350651   0.375000000000000   1.0000000
B2   B   0.111112501130923   0.388889026185889   0.875000000000000   1.0000000
B2   B   0.277778370332878   0.888889489440028   0.875000000000000   1.0000000
B2   B   0.611109936800699   0.888887779662254   0.875000000000000   1.0000000
B2   B   0.444444444444443   0.388888888888886   0.875000000000000   1.0000000
B2   B   0.944444476360180   0.888888856973149   0.875000000000000   1.0000000
B2   B   0.111192470094580   0.889000579461650   0.375000000000000   1.0000000
B2   B   0.777776525054973   0.388889026185889   0.875000000000000   1.0000000
B2   B   0.444392387575195   0.888862860454262   0.375000000000000   1.0000000
B2   B   0.278753448706791   0.388716221872583   0.375000000000000   1.0000000
B2   B   0.277931877728319   0.555401455605017   0.375000000000000   1.0000000
B2   B   0.609962773165798   0.388716221872583   0.375000000000000   1.0000000
B2   B   0.777736344560739   0.888759553543417   0.375000000000000   1.0000000
B2   B   0.944470472879067   0.388940945758133   0.375000000000000   1.0000000
B2   B   0.111111119107157   0.555554963000458   0.875000000000000   1.0000000
B2   B   0.277778954441451   0.055557908882903   0.875000000000000   1.0000000
B2   B   0.777775424450433   0.555554378891885   0.875000000000000   1.0000000
B2   B   0.611109936800699   0.055555490471774   0.875000000000000   1.0000000
B2   B   0.944445553671074   0.055555490471774   0.875000000000000   1.0000000
B2   B   0.055550202047732   0.111112807929945   0.124996640892277   1.0000000
B2   B   0.555557544019777   0.611115088039554   0.125003630549928   1.0000000
B2   B   0.388897791777460   0.111128171946361   0.125011969606301   1.0000000
B2   B   0.888880648084358   0.611106990708850   0.124996861311060   1.0000000
B2   B   0.722223527943992   0.111109805389343   0.124994585602777   1.0000000
B2   B   0.055555155994473   0.777778177338863   0.625003303484894   1.0000000
B2   B   0.388891061507921   0.777776320259654   0.625001108029470   1.0000000
B2   B   0.222218245293782   0.277775789313559   0.624996369450072   1.0000000
B2   B   0.722220525403391   0.777783131285604   0.625003359107723   1.0000000
B2   B   0.555557544019777   0.277775789313559   0.624996369450072   1.0000000
B2   B   0.888887625431556   0.277775250863119   0.625003595819268   1.0000000
B2   B   0.222223021344390   0.777778177338863   0.124996696515107   1.0000000
B2   B   0.055550202047732   0.277770727451123   0.124996640892277   1.0000000
B2   B   0.388908220985724   0.277816441971456   0.125052512185221   1.0000000
B2   B   0.555562605882213   0.777783131285604   0.124996640892277   1.0000000
B2   B   0.888885258751726   0.777776320259654   0.124998891970530   1.0000000
B2   B   0.722220525403391   0.277770727451123   0.124996640892277   1.0000000
B2   B   0.055557013073682   0.944448074581603   0.625001108029470   1.0000000
B2   B   0.388891061507921   0.944448074581603   0.625001108029470   1.0000000
B2   B   0.222230380168894   0.444435541555869   0.624988030393699   1.0000000
B2   B   0.555516891361880   0.444425112347604   0.624947487814779   1.0000000
B2   B   0.722223527943992   0.944447055887985   0.625005414397223   1.0000000
B2   B   0.888885258751726   0.444442271825408   0.625001108029470   1.0000000
B2   B   0.055557013073682   0.444442271825408   0.124998891970530   1.0000000
B2   B   0.222226342624486   0.944452685248971   0.124996861311060   1.0000000
B2   B   0.555558082470217   0.944445707901773   0.124996404180732   1.0000000
B2   B   0.388908220985724   0.444425112347604   0.125052512185221   1.0000000
B2   B   0.888887625431556   0.944445707901773   0.124996404180732   1.0000000
B2   B   0.722205161386975   0.444435541555869   0.125011969606301   1.0000000
B2   B   0.222226342624486   0.611106990708850   0.625003138688940   1.0000000
B2   B   0.055550202047732   0.111112807929945   0.625003359107723   1.0000000
B2   B   0.555557544019777   0.611115088039554   0.624996369450072   1.0000000
B2   B   0.388897791777460   0.111128171946361   0.624988030393699   1.0000000
B2   B   0.888880648084358   0.611106990708850   0.625003138688940   1.0000000
B2   B   0.055555155994473   0.611110311988946   0.124996696515107   1.0000000
B2   B   0.722223527943992   0.111109805389343   0.625005414397223   1.0000000
B2   B   0.222230380168894   0.111128171946361   0.125011969606301   1.0000000
B2   B   0.388897791777460   0.611102953164442   0.125011969606301   1.0000000
B2   B   0.722205161386975   0.611102953164442   0.125011969606301   1.0000000
B2   B   0.555562605882213   0.111112807929945   0.124996640892277   1.0000000
B2   B   0.388897791777460   0.611102953164442   0.624988030393699   1.0000000
B2   B   0.888886277445344   0.111109805389343   0.124994585602777   1.0000000
B2   B   0.222223021344390   0.777778177338863   0.625003303484894   1.0000000
B2   B   0.055550202047732   0.277770727451123   0.625003359107723   1.0000000
B2   B   0.388908220985724   0.277816441971456   0.624947487814779   1.0000000
B2   B   0.555562605882213   0.777783131285604   0.625003359107723   1.0000000
B2   B   0.888885258751726   0.777776320259654   0.625001108029470   1.0000000
B2   B   0.722220525403391   0.277770727451123   0.625003359107723   1.0000000
B2   B   0.055555155994473   0.777778177338863   0.124996696515107   1.0000000
B2   B   0.388891061507921   0.777776320259654   0.124998891970530   1.0000000
B2   B   0.222218245293782   0.277775789313559   0.125003630549928   1.0000000
B2   B   0.722220525403391   0.777783131285604   0.124996640892277   1.0000000
B2   B   0.555557544019777   0.277775789313559   0.125003630549928   1.0000000
B2   B   0.888887625431556   0.277775250863119   0.124996404180732   1.0000000
B2   B   0.055557013073682   0.444442271825408   0.625001108029470   1.0000000
B2   B   0.222226342624486   0.944452685248971   0.625003138688940   1.0000000
B2   B   0.555558082470217   0.944445707901773   0.625003595819268   1.0000000
B2   B   0.388908220985724   0.444425112347604   0.624947487814779   1.0000000
B2   B   0.888887625431556   0.944445707901773   0.625003595819268   1.0000000
B2   B   0.055557013073682   0.944448074581603   0.124998891970530   1.0000000
B2   B   0.722205161386975   0.444435541555869   0.624988030393699   1.0000000
B2   B   0.388891061507921   0.944448074581603   0.124998891970530   1.0000000
B2   B   0.222230380168894   0.444435541555869   0.125011969606301   1.0000000
B2   B   0.222226342624486   0.611106990708850   0.124996861311060   1.0000000
B2   B   0.555516891361880   0.444425112347604   0.125052512185221   1.0000000
B2   B   0.722223527943992   0.944447055887985   0.124994585602777   1.0000000
B2   B   0.888885258751726   0.444442271825408   0.124998891970530   1.0000000
B2   B   0.055555155994473   0.611110311988946   0.625003303484894   1.0000000
B2   B   0.222230380168894   0.111128171946361   0.624988030393699   1.0000000
B2   B   0.722205161386975   0.611102953164442   0.624988030393699   1.0000000
B2   B   0.555562605882213   0.111112807929945   0.625003359107723   1.0000000
B2   B   0.888886277445344   0.111109805389343   0.625005414397223   1.0000000


