data_1
_audit_creation_method   'vasp2cif'
_cell_length_a    17.52789999999977
_cell_length_b    17.52789999999977
_cell_length_c    15.0
_cell_angle_alpha    90.0
_cell_angle_beta    90.0
_cell_angle_gamma    119.99999999999916

_symmetry_space_group_name_H-M    'P 1'
loop_
_atom_site_label
_atom_site_type_symbol
_atom_site_fract_x
_atom_site_fract_y
_atom_site_fract_z
_atom_site_occupancy
B2   B   0.905024886804801   0.952807296735188   0.111016655052518   1.0000000
B2   B   0.904891116592232   0.095463183932675   0.111043417856398   1.0000000
B2   B   0.904767718548795   0.238144285365811   0.111048969727342   1.0000000
B2   B   0.904363391636063   0.380738929128545   0.111003452761311   1.0000000
B2   B   0.904082212992458   0.523297467006718   0.110999714403692   1.0000000
B2   B   0.905079483090862   0.666452858509293   0.111065286320212   1.0000000
B2   B   0.905497068517217   0.810216388605705   0.111051364674581   1.0000000
B2   B   0.047969724629836   0.952859316868423   0.111009675436693   1.0000000
B2   B   0.047964084153647   0.095689276572621   0.111013501001565   1.0000000
B2   B   0.047891684960647   0.238289266429159   0.111003724845324   1.0000000
B2   B   0.047685569778357   0.380811812321896   0.111018467760214   1.0000000
B2   B   0.047336688762721   0.523473239568264   0.111011662120396   1.0000000
B2   B   0.047317427755686   0.666368849604502   0.111022660198036   1.0000000
B2   B   0.047547642498684   0.809519377070768   0.111007342822132   1.0000000
B2   B   0.190324170684527   0.952296196833891   0.110997450456516   1.0000000
B2   B   0.190734283824541   0.095505458412413   0.111042382106977   1.0000000
B2   B   0.191016186914769   0.238489491241488   0.111018770720811   1.0000000
B2   B   0.191080128994236   0.380978313476634   0.111002913221329   1.0000000
B2   B   0.190440951886781   0.523549669051060   0.111059124633857   1.0000000
B2   B   0.189904023818220   0.666472306450639   0.111058410729777   1.0000000
B2   B   0.190204579723042   0.809390691297366   0.110995179506856   1.0000000
B2   B   0.333222430581228   0.952300280029109   0.111017394207408   1.0000000
B2   B   0.333145581625334   0.094878283683319   0.111066623995224   1.0000000
B2   B   0.333623170960860   0.237477992493947   0.111073424134820   1.0000000
B2   B   0.334769103769320   0.381047235269448   0.111058335067121   1.0000000
B2   B   0.333778191625286   0.524327520817444   0.111048527741357   1.0000000
B2   B   0.332306807180181   0.666595113627520   0.111092921642149   1.0000000
B2   B   0.333145576889380   0.809491822399771   0.111053412324785   1.0000000
B2   B   0.476195581665061   0.952594804840651   0.111012944487224   1.0000000
B2   B   0.476205652698808   0.095912674010007   0.110995067247043   1.0000000
B2   B   0.475670995399683   0.238982141022592   0.111039228842745   1.0000000
B2   B   0.474394750319935   0.665458390530643   0.110882395329852   1.0000000
B2   B   0.476222761911780   0.809360006917049   0.111051745609660   1.0000000
B2   B   0.619043811643705   0.952209126940437   0.111021514793403   1.0000000
B2   B   0.619028730601272   0.095510106559209   0.111005315952918   1.0000000
B2   B   0.619001606424538   0.239094838575895   0.111006880807801   1.0000000
B2   B   0.619340783521330   0.385167394766198   0.111006749231623   1.0000000
B2   B   0.620603858156230   0.664065807190961   0.110876571385674   1.0000000
B2   B   0.618841979102505   0.808383363693728   0.110967408399479   1.0000000
B2   B   0.761860723566373   0.952316950534926   0.111007871192130   1.0000000
B2   B   0.761909005473166   0.095334399508108   0.111049820694886   1.0000000
B2   B   0.761697925278605   0.238208566703518   0.111058890546104   1.0000000
B2   B   0.760945738757139   0.381063625569301   0.111008448770600   1.0000000
B2   B   0.759723232682043   0.523308362001631   0.111012632433871   1.0000000
B2   B   0.764378643471642   0.666790030374434   0.111041890788404   1.0000000
B2   B   0.762168079842223   0.809482485743853   0.110996907843437   1.0000000
C2   C   0.475518040339817   0.380786465540238   0.111245253037217   1.0000000
C2   C   0.475083563990826   0.522006818540864   0.111136660890171   1.0000000
C2   C   0.515328949676029   0.469335199820210   0.111453536264527   1.0000000
C2   C   0.520724402482656   0.613051207019080   0.110727148977902   1.0000000
N2   N   0.953310820331141   0.905865240482159   0.111007714066979   1.0000000
N2   N   0.952912471226265   0.048320776631702   0.111008792778728   1.0000000
N2   N   0.952689967345490   0.190744516348865   0.111018665410300   1.0000000
N2   N   0.952481049433810   0.333224081070665   0.111007305759346   1.0000000
N2   N   0.952398110438051   0.475824939703320   0.110967194049553   1.0000000
N2   N   0.952932090063216   0.618819268527916   0.111007337478531   1.0000000
N2   N   0.953191699302173   0.762421479885576   0.111039455345737   1.0000000
N2   N   0.095484353123810   0.905070589447393   0.110979540533381   1.0000000
N2   N   0.095750822578406   0.048257716835893   0.110999853676995   1.0000000
N2   N   0.095787347813745   0.190962723687962   0.110994606453717   1.0000000
N2   N   0.095691701560515   0.333378574267321   0.110985276345929   1.0000000
N2   N   0.095249064617197   0.475906698443907   0.111012746322292   1.0000000
N2   N   0.095043719447252   0.618784813536624   0.111015135820847   1.0000000
N2   N   0.095332875609162   0.761909888923997   0.110985190062488   1.0000000
N2   N   0.238014876026146   0.904753985484030   0.110975375593157   1.0000000
N2   N   0.237998845020311   0.047576187015226   0.111027723657583   1.0000000
N2   N   0.238490534060750   0.190825644212551   0.111034218209969   1.0000000
N2   N   0.239179955926808   0.333565091403430   0.110996100838710   1.0000000
N2   N   0.238248450996881   0.475864344777817   0.111022133076918   1.0000000
N2   N   0.237216444136288   0.618762044607186   0.111069368090828   1.0000000
N2   N   0.237839546165394   0.761843871293615   0.111015920720450   1.0000000
N2   N   0.380791831330172   0.904816433111993   0.111008728514405   1.0000000
N2   N   0.380782245290976   0.047482213753198   0.111017272112085   1.0000000
N2   N   0.380421053043390   0.189729512632652   0.111053027041173   1.0000000
N2   N   0.382069379520178   0.332482683451316   0.111067572000461   1.0000000
N2   N   0.381572547423093   0.475934598238238   0.111068477711320   1.0000000
N2   N   0.378944425078262   0.618788818760903   0.111022429964783   1.0000000
N2   N   0.380468679339047   0.761949375835263   0.111059941002556   1.0000000
N2   N   0.523652269204252   0.904996879952440   0.111020495578784   1.0000000
N2   N   0.523640431433626   0.047940001900712   0.110974986003953   1.0000000
N2   N   0.523373637172914   0.191120383761689   0.110971972799526   1.0000000
N2   N   0.520967924435594   0.333856606160291   0.111060283697613   1.0000000
N2   N   0.523117029255146   0.761755534165572   0.110958429917685   1.0000000
N2   N   0.666585846089255   0.904687124434867   0.110989006797110   1.0000000
N2   N   0.666631858650010   0.047737686230349   0.111010113475797   1.0000000
N2   N   0.666406307662416   0.190592188769603   0.111017463870581   1.0000000
N2   N   0.665507304264203   0.333381329542495   0.110984684429364   1.0000000
N2   N   0.667606551841910   0.476383828087918   0.110955927281194   1.0000000
N2   N   0.673528177123234   0.625766549834527   0.110952257300465   1.0000000
N2   N   0.667355117945600   0.762126696505964   0.110934327958471   1.0000000
N2   N   0.810112303624343   0.905568374699604   0.110987555578236   1.0000000
N2   N   0.809706524494949   0.047946258494955   0.111029259024570   1.0000000
N2   N   0.809569999935591   0.190532513455559   0.111043345123424   1.0000000
N2   N   0.809212893079254   0.333069558352867   0.111016890224563   1.0000000
N2   N   0.809600511012265   0.475819883940214   0.110990465949774   1.0000000
N2   N   0.811759944181136   0.619384433654759   0.111038796867830   1.0000000
N2   N   0.811540097251286   0.763645255602797   0.111030186259797   1.0000000


