data_1
_audit_creation_method   'vasp2cif'
_cell_length_a    14.93631414619966
_cell_length_b    14.936314146199727
_cell_length_c    13.341276283792837
_cell_angle_alpha    90.0
_cell_angle_beta    90.0
_cell_angle_gamma    119.99999999999984

_symmetry_space_group_name_H-M    'P 1'
loop_
_atom_site_label
_atom_site_type_symbol
_atom_site_fract_x
_atom_site_fract_y
_atom_site_fract_z
_atom_site_occupancy
Se2   Se   0.444444444444443   0.388888888888886   0.375000000000000   1.0000000
N2   N   0.111112816967171   0.055533292282417   0.124940041208428   1.0000000
N2   N   0.611124462865042   0.555553816310321   0.125962190329064   1.0000000
N2   N   0.444420475315236   0.055533292282417   0.124940041208428   1.0000000
N2   N   0.944463308681389   0.555573365519492   0.125170594149593   1.0000000
N2   N   0.777777777777779   0.055555555555557   0.125105777667799   1.0000000
N2   N   0.111111111111114   0.722222222222221   0.624645913128015   1.0000000
N2   N   0.444420475315236   0.722220516366182   0.625059958791541   1.0000000
N2   N   0.277779517023016   0.222208870468265   0.624037809670872   1.0000000
N2   N   0.777800041050861   0.722220516366182   0.625059958791541   1.0000000
N2   N   0.611098852193165   0.222234481140191   0.625045334317678   1.0000000
N2   N   0.944461683666926   0.222240976179781   0.624995000854862   1.0000000
N2   N   0.277759967813856   0.722223276495245   0.125170594149593   1.0000000
N2   N   0.111135628947047   0.222234481140191   0.124954665682355   1.0000000
N2   N   0.444429353445221   0.222208870468265   0.125962190329057   1.0000000
N2   N   0.611098852193165   0.722197704386282   0.124954665682360   1.0000000
N2   N   0.944463308681389   0.722223276495245   0.125170594149593   1.0000000
N2   N   0.777779292512809   0.222240976179781   0.125004999145169   1.0000000
N2   N   0.111110056838114   0.888870024651940   0.624829405850364   1.0000000
N2   N   0.444418938316727   0.888876135825101   0.624945837201324   1.0000000
N2   N   0.277779517023016   0.388903979888107   0.624037809670903   1.0000000
N2   N   0.611124462865042   0.388903979888107   0.624037809670872   1.0000000
N2   N   0.777779292512809   0.888871649666402   0.624995000854862   1.0000000
N2   N   0.944457197508227   0.388914395016601   0.624945837201324   1.0000000
N2   N   0.111112816967171   0.388912858018093   0.124940041208434   1.0000000
N2   N   0.277759967813856   0.888870024651940   0.125170594149593   1.0000000
N2   N   0.611092357153502   0.888871649666402   0.125004999145169   1.0000000
N2   N   0.444444444444443   0.388888888888886   0.129422442822172   1.0000000
N2   N   0.944457197508227   0.888876135825101   0.125054162798668   1.0000000
N2   N   0.777800041050861   0.388912858018093   0.124940041208428   1.0000000
N2   N   0.277765105420092   0.555568227913227   0.624853316814943   1.0000000
N2   N   0.111112816967171   0.055533292282417   0.625059958791541   1.0000000
N2   N   0.611124462865042   0.555553816310321   0.624037809670872   1.0000000
N2   N   0.444420475315236   0.055533292282417   0.625059958791541   1.0000000
N2   N   0.944463308681389   0.555573365519492   0.624829405850364   1.0000000
N2   N   0.111110056838114   0.555573365519492   0.125170594149593   1.0000000
N2   N   0.777777777777779   0.055555555555557   0.624894222332223   1.0000000
N2   N   0.277765105420092   0.055530210840153   0.125146683185023   1.0000000
N2   N   0.444429353445221   0.555553816310321   0.125962190329063   1.0000000
N2   N   0.777803122493151   0.555568227913227   0.125146683185023   1.0000000
N2   N   0.611092357153502   0.055554040820499   0.125004999145169   1.0000000
N2   N   0.444429353445221   0.555553816310321   0.624037809670872   1.0000000
N2   N   0.944461683666926   0.055554040820499   0.125004999145169   1.0000000
N2   N   0.277759967813856   0.722223276495245   0.624829405850364   1.0000000
N2   N   0.111135628947047   0.222234481140191   0.625045334317678   1.0000000
N2   N   0.444429353445221   0.222208870468265   0.624037809670872   1.0000000
N2   N   0.611098852193165   0.722197704386282   0.625045334317678   1.0000000
N2   N   0.944463308681389   0.722223276495245   0.624829405850364   1.0000000
N2   N   0.777779292512809   0.222240976179781   0.624995000854862   1.0000000
N2   N   0.111111111111114   0.722222222222221   0.125354086871967   1.0000000
N2   N   0.444420475315236   0.722220516366182   0.124940041208428   1.0000000
N2   N   0.277779517023016   0.222208870468265   0.125962190329056   1.0000000
N2   N   0.777800041050861   0.722220516366182   0.124940041208428   1.0000000
N2   N   0.611098852193165   0.222234481140191   0.124954665682355   1.0000000
N2   N   0.944461683666926   0.222240976179781   0.125004999145169   1.0000000
N2   N   0.111112816967171   0.388912858018093   0.625059958791541   1.0000000
N2   N   0.277759967813856   0.888870024651940   0.624829405850364   1.0000000
N2   N   0.611092357153502   0.888871649666402   0.624995000854862   1.0000000
N2   N   0.444444444444443   0.388888888888886   0.620577557177804   1.0000000
N2   N   0.944457197508227   0.888876135825101   0.624945837201324   1.0000000
N2   N   0.111110056838114   0.888870024651940   0.125170594149593   1.0000000
N2   N   0.777800041050861   0.388912858018093   0.625059958791541   1.0000000
N2   N   0.444418938316727   0.888876135825101   0.125054162798668   1.0000000
N2   N   0.277779517023016   0.388903979888107   0.125962190329064   1.0000000
N2   N   0.277765105420092   0.555568227913227   0.125146683185023   1.0000000
N2   N   0.611124462865042   0.388903979888107   0.125962190329059   1.0000000
N2   N   0.777779292512809   0.888871649666402   0.125004999145169   1.0000000
N2   N   0.944457197508227   0.388914395016601   0.125054162798668   1.0000000
N2   N   0.111110056838114   0.555573365519492   0.624829405850364   1.0000000
N2   N   0.277765105420092   0.055530210840153   0.624853316814943   1.0000000
N2   N   0.777803122493151   0.555568227913227   0.624853316814943   1.0000000
N2   N   0.611092357153502   0.055554040820495   0.624995000854862   1.0000000
N2   N   0.944461683666926   0.055554040820499   0.624995000854862   1.0000000
N2   N   0.054563028851988   0.110430380290196   0.375000000000000   1.0000000
N2   N   0.556198240236653   0.612396480473310   0.375000000000000   1.0000000
N2   N   0.387964072070063   0.106506119918349   0.375000000000000   1.0000000
N2   N   0.890421258798566   0.611877296066034   0.375000000000000   1.0000000
N2   N   0.722394390873756   0.110938942459626   0.375000000000000   1.0000000
N2   N   0.055552427600001   0.777780905733297   0.875000000000000   1.0000000
N2   N   0.388898934362943   0.777781478163966   0.875000000000000   1.0000000
N2   N   0.222222718437321   0.277778025885307   0.875000000000000   1.0000000
N2   N   0.722221321693060   0.777783970859356   0.875000000000000   1.0000000
N2   N   0.555555307447942   0.277778025885307   0.875000000000000   1.0000000
N2   N   0.888885806675549   0.277771613351112   0.875000000000000   1.0000000
N2   N   0.221959510335484   0.777646421834363   0.375000000000000   1.0000000
N2   N   0.054563028851988   0.277465981895119   0.375000000000000   1.0000000
N2   N   0.379529749867563   0.259059499735147   0.375000000000000   1.0000000
N2   N   0.555867351438202   0.778770304481306   0.375000000000000   1.0000000
N2   N   0.890137450395610   0.778829570293476   0.375000000000000   1.0000000
N2   N   0.722902953043138   0.277465981895119   0.375000000000000   1.0000000
N2   N   0.055551855169356   0.944450789532299   0.875000000000000   1.0000000
N2   N   0.388898934362943   0.944450789532299   0.875000000000000   1.0000000
N2   N   0.222224281272755   0.444434804592139   0.875000000000000   1.0000000
N2   N   0.555542757861009   0.444438045597169   0.875000000000000   1.0000000
N2   N   0.722223863478577   0.944447726957145   0.875000000000000   1.0000000
N2   N   0.888882543801030   0.444434398970385   0.875000000000000   1.0000000
N2   N   0.054503763039852   0.444641213435481   0.375000000000000   1.0000000
N2   N   0.221456037267348   0.942912074534763   0.375000000000000   1.0000000
N2   N   0.555798918912659   0.944566126122974   0.375000000000000   1.0000000
N2   N   0.379529749867563   0.453803583465765   0.375000000000000   1.0000000
N2   N   0.888767207210355   0.944566126122974   0.375000000000000   1.0000000
N2   N   0.726827213414964   0.445369261263266   0.375000000000000   1.0000000
N2   N   0.222227645051372   0.611105688281919   0.875000000000000   1.0000000
N2   N   0.055549362474013   0.111112011640347   0.875000000000000   1.0000000
N2   N   0.555555307447942   0.611110614896058   0.875000000000000   1.0000000
N2   N   0.388898528741191   0.111122810013985   0.875000000000000   1.0000000
N2   N   0.888878043230521   0.611105688281919   0.875000000000000   1.0000000
N2   N   0.055686911498921   0.611373822997860   0.375000000000000   1.0000000
N2   N   0.722223863478577   0.111109469854782   0.875000000000000   1.0000000
N2   N   0.218542047848269   0.106506119918350   0.375000000000000   1.0000000
N2   N   0.387964072070063   0.614791285485060   0.375000000000000   1.0000000
N2   N   0.726827213414967   0.614791285485060   0.375000000000000   1.0000000
N2   N   0.555867351438202   0.110430380290196   0.375000000000000   1.0000000
N2   N   0.388898528741189   0.611109052060549   0.875000000000000   1.0000000
N2   N   0.888544551585926   0.110938942459626   0.375000000000000   1.0000000
N2   N   0.222228478133315   0.777780905733297   0.875000000000000   1.0000000
N2   N   0.055549362474014   0.277770684167022   0.875000000000000   1.0000000
N2   N   0.388895287736160   0.277790575472321   0.875000000000000   1.0000000
N2   N   0.555562649166317   0.777783970859356   0.875000000000000   1.0000000
N2   N   0.888882543801030   0.777781478163966   0.875000000000000   1.0000000
N2   N   0.722221321693060   0.277770684167022   0.875000000000000   1.0000000
N2   N   0.055686911498921   0.777646421834363   0.375000000000000   1.0000000
N2   N   0.388692119897848   0.778829570293476   0.375000000000000   1.0000000
N2   N   0.220936852860022   0.277135093096681   0.375000000000000   1.0000000
N2   N   0.722902953043138   0.778770304481306   0.375000000000000   1.0000000
N2   N   0.556198240236653   0.277135093096681   0.375000000000000   1.0000000
N2   N   0.888767207210355   0.277534414420716   0.375000000000000   1.0000000
N2   N   0.055551855169356   0.444434398970385   0.875000000000000   1.0000000
N2   N   0.222227645051372   0.944455290102808   0.875000000000000   1.0000000
N2   N   0.555561719982329   0.944447526657779   0.875000000000000   1.0000000
N2   N   0.388895287736160   0.444438045597169   0.875000000000000   1.0000000
N2   N   0.888885806675549   0.944447526657779   0.875000000000000   1.0000000
N2   N   0.054503763039853   0.943195882937718   0.375000000000000   1.0000000
N2   N   0.722210523319352   0.444434804592139   0.875000000000000   1.0000000
N2   N   0.388692119897848   0.943195882937718   0.375000000000000   1.0000000
N2   N   0.218542047848269   0.445369261263266   0.375000000000000   1.0000000
N2   N   0.221456037267348   0.611877296066034   0.375000000000000   1.0000000
N2   N   0.574273833598202   0.453803583465765   0.375000000000000   1.0000000
N2   N   0.722394390873756   0.944788781747402   0.375000000000000   1.0000000
N2   N   0.890137450395610   0.444641213435481   0.375000000000000   1.0000000
N2   N   0.055552427599999   0.611104855199993   0.875000000000000   1.0000000
N2   N   0.222224281272755   0.111122810013985   0.875000000000000   1.0000000
N2   N   0.722210523319352   0.611109052060549   0.875000000000000   1.0000000
N2   N   0.555562649166317   0.111112011640347   0.875000000000000   1.0000000
N2   N   0.888885606376183   0.111109469854782   0.875000000000000   1.0000000
B2   B   0.107524302384223   0.052546299556266   0.375000000000000   1.0000000
B2   B   0.619412363597577   0.565460770540562   0.375000000000000   1.0000000
B2   B   0.445021997172049   0.052546299556266   0.375000000000000   1.0000000
B2   B   0.945390584282256   0.555755377378576   0.375000000000000   1.0000000
B2   B   0.777777777777779   0.055555555555557   0.375000000000000   1.0000000
B2   B   0.111111111111114   0.722222222222221   0.875000000000000   1.0000000
B2   B   0.444467191861049   0.722295360334332   0.875000000000000   1.0000000
B2   B   0.277693238840647   0.222152671986876   0.875000000000000   1.0000000
B2   B   0.777828168473303   0.722295360334332   0.875000000000000   1.0000000
B2   B   0.611164317894448   0.222169015438856   0.875000000000000   1.0000000
B2   B   0.944392631937770   0.222189439953797   0.875000000000000   1.0000000
B2   B   0.277577955954720   0.722968540237035   0.375000000000000   1.0000000
B2   B   0.107986702769695   0.220660018051509   0.375000000000000   1.0000000
B2   B   0.446048406942986   0.213920969735772   0.375000000000000   1.0000000
B2   B   0.612673315281807   0.725346630563648   0.375000000000000   1.0000000
B2   B   0.945390584282256   0.722968540237035   0.375000000000000   1.0000000
B2   B   0.778166328337372   0.221519431120308   0.375000000000000   1.0000000
B2   B   0.111089929393324   0.888869612052034   0.875000000000000   1.0000000
B2   B   0.444468125160774   0.888900729247051   0.875000000000000   1.0000000
B2   B   0.277693238840647   0.388873900187156   0.875000000000000   1.0000000
B2   B   0.611180661346434   0.388873900187156   0.875000000000000   1.0000000
B2   B   0.777796808016076   0.888940701395559   0.875000000000000   1.0000000
B2   B   0.944432604086277   0.388865208172554   0.875000000000000   1.0000000
B2   B   0.107524302384223   0.388311336161279   0.375000000000000   1.0000000
B2   B   0.277577955954720   0.887942749051072   0.375000000000000   1.0000000
B2   B   0.611813902213017   0.889980230550339   0.375000000000000   1.0000000
B2   B   0.944195219501801   0.889138113831528   0.375000000000000   1.0000000
B2   B   0.780787033777098   0.388311336161279   0.375000000000000   1.0000000
B2   B   0.277746802494354   0.555586530839030   0.875000000000000   1.0000000
B2   B   0.111037972998980   0.055505164860013   0.875000000000000   1.0000000
B2   B   0.611180661346434   0.555640094492667   0.875000000000000   1.0000000
B2   B   0.444467191861049   0.055505164860013   0.875000000000000   1.0000000
B2   B   0.944463721281295   0.555553650674672   0.875000000000000   1.0000000
B2   B   0.110364793096304   0.555755377378576   0.375000000000000   1.0000000
B2   B   0.777777777777779   0.055555555555557   0.875000000000000   1.0000000
B2   B   0.276042024744814   0.052084049489650   0.375000000000000   1.0000000
B2   B   0.446048406942986   0.565460770540562   0.375000000000000   1.0000000
B2   B   0.781249283843707   0.557291308588541   0.375000000000000   1.0000000
B2   B   0.611813902213017   0.055167004996044   0.375000000000000   1.0000000
B2   B   0.444459433146173   0.555640094492667   0.875000000000000   1.0000000
B2   B   0.943353102782990   0.055167004996044   0.375000000000000   1.0000000
B2   B   0.277779682658690   0.722243403940077   0.875000000000000   1.0000000
B2   B   0.111004697544376   0.222169015438856   0.875000000000000   1.0000000
B2   B   0.444459433146173   0.222152671986876   0.875000000000000   1.0000000
B2   B   0.611164317894448   0.722328635788939   0.875000000000000   1.0000000
B2   B   0.944463721281295   0.722243403940077   0.875000000000000   1.0000000
B2   B   0.777796808016076   0.222189439953797   0.875000000000000   1.0000000
B2   B   0.111111111111114   0.722222222222221   0.375000000000000   1.0000000
B2   B   0.445021997172049   0.725809030949121   0.375000000000000   1.0000000
B2   B   0.267872562792751   0.213920969735772   0.375000000000000   1.0000000
B2   B   0.780787033777098   0.725809030949121   0.375000000000000   1.0000000
B2   B   0.612673315281807   0.220660018051509   0.375000000000000   1.0000000
B2   B   0.943353102782990   0.221519431120308   0.375000000000000   1.0000000
B2   B   0.111037972998980   0.388866141472279   0.875000000000000   1.0000000
B2   B   0.277779682658690   0.888869612052034   0.875000000000000   1.0000000
B2   B   0.611143893379532   0.888940701395559   0.875000000000000   1.0000000
B2   B   0.444444444444443   0.388888888888886   0.875000000000000   1.0000000
B2   B   0.944432604086277   0.888900729247051   0.875000000000000   1.0000000
B2   B   0.110364793096304   0.887942749051072   0.375000000000000   1.0000000
B2   B   0.777828168473303   0.388866141472279   0.875000000000000   1.0000000
B2   B   0.444942894329732   0.889138113831528   0.375000000000000   1.0000000
B2   B   0.267872562792751   0.387284926390343   0.375000000000000   1.0000000
B2   B   0.276042024744814   0.557291308588541   0.375000000000000   1.0000000
B2   B   0.619412363597577   0.387284926390343   0.375000000000000   1.0000000
B2   B   0.778166328337372   0.889980230550339   0.375000000000000   1.0000000
B2   B   0.944195219501801   0.388390439003593   0.375000000000000   1.0000000
B2   B   0.111089929393324   0.555553650674672   0.875000000000000   1.0000000
B2   B   0.277746802494354   0.055493604988680   0.875000000000000   1.0000000
B2   B   0.777839728344627   0.555586530839030   0.875000000000000   1.0000000
B2   B   0.611143893379532   0.055536525317222   0.875000000000000   1.0000000
B2   B   0.944392631937770   0.055536525317222   0.875000000000000   1.0000000
B2   B   0.055403711444638   0.110965471474759   0.124434459689702   1.0000000
B2   B   0.555703458494167   0.611406916988388   0.124656592896779   1.0000000
B2   B   0.388760798359674   0.110743873711546   0.124519502073747   1.0000000
B2   B   0.889117700828452   0.611225517081003   0.124667847589790   1.0000000
B2   B   0.722243662971206   0.111089670362081   0.124676454923481   1.0000000
B2   B   0.055588505590427   0.777744827742965   0.625126204380585   1.0000000
B2   B   0.388809657428625   0.777848000062289   0.625398186190902   1.0000000
B2   B   0.221926416344947   0.277629874839142   0.625343407103235   1.0000000
B2   B   0.722367861858525   0.777929621888684   0.625565540310274   1.0000000
B2   B   0.555703458494167   0.277629874839142   0.625343407103235   1.0000000
B2   B   0.888900106362238   0.277800212724530   0.625353180854723   1.0000000
B2   B   0.222156322152493   0.777744827742965   0.124873795619423   1.0000000
B2   B   0.055403711444638   0.277771573303208   0.124434459689702   1.0000000
B2   B   0.388650619396233   0.277301238792426   0.125506810210632   1.0000000
B2   B   0.555561760030134   0.777929621888684   0.124434459689702   1.0000000
B2   B   0.889038342633679   0.777848000062289   0.124601813809123   1.0000000
B2   B   0.722367861858525   0.277771573303208   0.124434459689702   1.0000000
B2   B   0.055485333271025   0.944294990699649   0.625398186190902   1.0000000
B2   B   0.388809657428625   0.944294990699649   0.625398186190902   1.0000000
B2   B   0.221983075351879   0.444572534973655   0.625480497926273   1.0000000
B2   B   0.556032094540862   0.444682713937096   0.624493189789410   1.0000000
B2   B   0.722243662971206   0.944487325942491   0.625323545076489   1.0000000
B2   B   0.889038342633679   0.444523675904703   0.625398186190902   1.0000000
B2   B   0.055485333271025   0.444523675904703   0.124601813809123   1.0000000
B2   B   0.222107816252401   0.944215632504877   0.124667847589790   1.0000000
B2   B   0.555533120608829   0.944433226971091   0.124646819145222   1.0000000
B2   B   0.388650619396233   0.444682713937096   0.125506810210626   1.0000000
B2   B   0.888900106362238   0.944433226971091   0.124646819145222   1.0000000
B2   B   0.722589459621795   0.444572534973655   0.124519502073753   1.0000000
B2   B   0.222107816252402   0.611225517081003   0.625332152410181   1.0000000
B2   B   0.055403711444638   0.110965471474759   0.625565540310274   1.0000000
B2   B   0.555703458494167   0.611406916988388   0.625343407103213   1.0000000
B2   B   0.388760798359674   0.110743873711546   0.625480497926273   1.0000000
B2   B   0.889117700828452   0.611225517081003   0.625332152410181   1.0000000
B2   B   0.055588505590427   0.611177011180822   0.124873795619417   1.0000000
B2   B   0.722243662971206   0.111089670362081   0.625323545076489   1.0000000
B2   B   0.221983075351879   0.110743873711546   0.124519502073748   1.0000000
B2   B   0.388760798359674   0.611350257981447   0.124519502073756   1.0000000
B2   B   0.722589459621795   0.611350257981447   0.124519502073748   1.0000000
B2   B   0.555561760030134   0.110965471474759   0.124434459689702   1.0000000
B2   B   0.388760798359674   0.611350257981447   0.625480497926241   1.0000000
B2   B   0.888846007390838   0.111089670362081   0.124676454923481   1.0000000
B2   B   0.222156322152493   0.777744827742965   0.625126204380585   1.0000000
B2   B   0.055403711444638   0.277771573303208   0.625565540310274   1.0000000
B2   B   0.388650619396233   0.277301238792426   0.624493189789410   1.0000000
B2   B   0.555561760030134   0.777929621888684   0.625565540310274   1.0000000
B2   B   0.889038342633679   0.777848000062289   0.625398186190902   1.0000000
B2   B   0.722367861858525   0.277771573303208   0.625565540310274   1.0000000
B2   B   0.055588505590427   0.777744827742965   0.124873795619417   1.0000000
B2   B   0.388809657428625   0.777848000062289   0.124601813809123   1.0000000
B2   B   0.221926416344947   0.277629874839142   0.124656592896786   1.0000000
B2   B   0.722367861858525   0.777929621888684   0.124434459689702   1.0000000
B2   B   0.555703458494167   0.277629874839142   0.124656592896778   1.0000000
B2   B   0.888900106362238   0.277800212724530   0.124646819145222   1.0000000
B2   B   0.055485333271025   0.444523675904703   0.625398186190902   1.0000000
B2   B   0.222107816252401   0.944215632504877   0.625332152410181   1.0000000
B2   B   0.555533120608829   0.944433226971091   0.625353180854723   1.0000000
B2   B   0.388650619396233   0.444682713937096   0.624493189789410   1.0000000
B2   B   0.888900106362238   0.944433226971091   0.625353180854723   1.0000000
B2   B   0.055485333271025   0.944294990699649   0.124601813809123   1.0000000
B2   B   0.722589459621795   0.444572534973655   0.625480497926241   1.0000000
B2   B   0.388809657428625   0.944294990699649   0.124601813809123   1.0000000
B2   B   0.221983075351872   0.444572534973655   0.124519502073747   1.0000000
B2   B   0.222107816252402   0.611225517081003   0.124667847589790   1.0000000
B2   B   0.556032094540862   0.444682713937096   0.125506810210626   1.0000000
B2   B   0.722243662971206   0.944487325942491   0.124676454923481   1.0000000
B2   B   0.889038342633679   0.444523675904703   0.124601813809123   1.0000000
B2   B   0.055588505590427   0.611177011180822   0.625126204380585   1.0000000
B2   B   0.221983075351879   0.110743873711546   0.625480497926241   1.0000000
B2   B   0.722589459621795   0.611350257981447   0.625480497926273   1.0000000
B2   B   0.555561760030134   0.110965471474759   0.625565540310274   1.0000000
B2   B   0.888846007390838   0.111089670362081   0.625323545076489   1.0000000


