data_1
_audit_creation_method   'vasp2cif'
_cell_length_a    14.93631414619966
_cell_length_b    14.936314146199727
_cell_length_c    13.341276283792837
_cell_angle_alpha    90.0
_cell_angle_beta    90.0
_cell_angle_gamma    119.99999999999984

_symmetry_space_group_name_H-M    'P 1'
loop_
_atom_site_label
_atom_site_type_symbol
_atom_site_fract_x
_atom_site_fract_y
_atom_site_fract_z
_atom_site_occupancy
Si2   Si   0.420376587066433   0.376854960199881   0.375000000000000   1.0000000
Si2   Si   0.571672893089375   0.452503113211352   0.375000000000000   1.0000000
N2   N   0.111053244786787   0.055498257109584   0.125114583457028   1.0000000
N2   N   0.611081346200214   0.555556292127138   0.124412564058331   1.0000000
N2   N   0.444423754436643   0.055527686202212   0.125147564263773   1.0000000
N2   N   0.944421779495930   0.555554648424420   0.125225679833398   1.0000000
N2   N   0.777771845111863   0.055552589222600   0.125040853787550   1.0000000
N2   N   0.111091216267132   0.722212274800230   0.624872956386323   1.0000000
N2   N   0.444423754436643   0.722229401567767   0.624852435736228   1.0000000
N2   N   0.277678421911370   0.222149093552400   0.624739863961836   1.0000000
N2   N   0.777762722219031   0.722215119905336   0.625020340699473   1.0000000
N2   N   0.611088310574340   0.222205711666255   0.624983766993010   1.0000000
N2   N   0.944420812011743   0.222219271155363   0.624957437310883   1.0000000
N2   N   0.277759135807748   0.722224575752596   0.125120604749697   1.0000000
N2   N   0.111050578655684   0.222191955994506   0.125061782876870   1.0000000
N2   N   0.444398385990104   0.222177230669259   0.125066066745196   1.0000000
N2   N   0.611088310574340   0.722215932241413   0.125016233006990   1.0000000
N2   N   0.944421779495930   0.722200464404846   0.125225679833398   1.0000000
N2   N   0.777767456490558   0.222218271782192   0.125047664543804   1.0000000
N2   N   0.111082753377608   0.888853419708323   0.624861786686676   1.0000000
N2   N   0.444434083886369   0.888883708609848   0.624892284323042   1.0000000
N2   N   0.277678421911370   0.388862661692299   0.624739863961836   1.0000000
N2   N   0.611081346200214   0.388858387406405   0.625587435941669   1.0000000
N2   N   0.777767456490558   0.888882518041695   0.624952335456196   1.0000000
N2   N   0.944420373072681   0.388892203331892   0.624902662426625   1.0000000
N2   N   0.111053244786787   0.388888321010532   0.125114583457028   1.0000000
N2   N   0.277759135807748   0.888867893388481   0.125120604749697   1.0000000
N2   N   0.611103235350712   0.888889678355538   0.125080273934783   1.0000000
N2   N   0.444207713486512   0.388770523409921   0.125922094144375   1.0000000
N2   N   0.944420373072681   0.888861503074116   0.125097337573375   1.0000000
N2   N   0.777762722219031   0.388880935647024   0.124979659300527   1.0000000
N2   N   0.277738553666935   0.555561382815115   0.624775285572092   1.0000000
N2   N   0.111053244786787   0.055498257109584   0.624885416542972   1.0000000
N2   N   0.611081346200214   0.555556292127138   0.625587435941669   1.0000000
N2   N   0.444423754436643   0.055527686202212   0.624852435736228   1.0000000
N2   N   0.944421779495930   0.555554648424420   0.624774320166602   1.0000000
N2   N   0.111082753377608   0.555562667002613   0.125138213313325   1.0000000
N2   N   0.777771845111863   0.055552589222600   0.624959146212450   1.0000000
N2   N   0.277738553666935   0.055510504185154   0.125224714427909   1.0000000
N2   N   0.444398385990104   0.555554488654181   0.125066066745196   1.0000000
N2   N   0.777735725805134   0.555534529569236   0.125187369130773   1.0000000
N2   N   0.611103235350712   0.055546890328502   0.125080273934783   1.0000000
N2   N   0.444398385990104   0.555554488654181   0.624933933254804   1.0000000
N2   N   0.944420812011743   0.055534874189717   0.125042562689117   1.0000000
N2   N   0.277759135807748   0.722224575752596   0.624879395250303   1.0000000
N2   N   0.111050578655684   0.222191955994506   0.624938217123130   1.0000000
N2   N   0.444398385990104   0.222177230669259   0.624933933254804   1.0000000
N2   N   0.611088310574340   0.722215932241413   0.624983766993010   1.0000000
N2   N   0.944421779495930   0.722200464404846   0.624774320166602   1.0000000
N2   N   0.777767456490558   0.222218271782192   0.624952335456196   1.0000000
N2   N   0.111091216267132   0.722212274800230   0.125127043613677   1.0000000
N2   N   0.444423754436643   0.722229401567767   0.125147564263773   1.0000000
N2   N   0.277678421911370   0.222149093552400   0.125260136038164   1.0000000
N2   N   0.777762722219031   0.722215119905336   0.124979659300527   1.0000000
N2   N   0.611088310574340   0.222205711666255   0.125016233006990   1.0000000
N2   N   0.944420812011743   0.222219271155363   0.125042562689117   1.0000000
N2   N   0.111053244786787   0.388888321010532   0.624885416542972   1.0000000
N2   N   0.277759135807748   0.888867893388481   0.624879395250303   1.0000000
N2   N   0.611103235350712   0.888889678355538   0.624919726065217   1.0000000
N2   N   0.444207713486512   0.388770523409921   0.624077905855624   1.0000000
N2   N   0.944420373072681   0.888861503074116   0.624902662426625   1.0000000
N2   N   0.111082753377608   0.888853419708323   0.125138213313325   1.0000000
N2   N   0.777762722219031   0.388880935647024   0.625020340699473   1.0000000
N2   N   0.444434083886369   0.888883708609848   0.125107715676958   1.0000000
N2   N   0.277678421911370   0.388862661692299   0.125260136038164   1.0000000
N2   N   0.277738553666935   0.555561382815115   0.125224714427909   1.0000000
N2   N   0.611081346200214   0.388858387406405   0.124412564058331   1.0000000
N2   N   0.777767456490558   0.888882518041695   0.125047664543804   1.0000000
N2   N   0.944420373072681   0.388892203331892   0.125097337573375   1.0000000
N2   N   0.111082753377608   0.555562667002613   0.624861786686676   1.0000000
N2   N   0.277738553666935   0.055510504185154   0.624775285572092   1.0000000
N2   N   0.777735725805134   0.555534529569236   0.624812630869228   1.0000000
N2   N   0.611103235350712   0.055546890328502   0.624919726065217   1.0000000
N2   N   0.944420812011743   0.055534874189717   0.624957437310883   1.0000000
N2   N   0.054988311111830   0.110714298373594   0.375000000000000   1.0000000
N2   N   0.556107519995352   0.623380244547150   0.375000000000000   1.0000000
N2   N   0.387058228841852   0.104016053820052   0.375000000000000   1.0000000
N2   N   0.890895073480462   0.612114203406902   0.375000000000000   1.0000000
N2   N   0.723235287634286   0.110296909595117   0.375000000000000   1.0000000
N2   N   0.055552472157498   0.777779133442474   0.875000000000000   1.0000000
N2   N   0.388894488952861   0.777779719801358   0.875000000000000   1.0000000
N2   N   0.222222774604202   0.277778053968768   0.875000000000000   1.0000000
N2   N   0.722220480988042   0.777778328820661   0.875000000000000   1.0000000
N2   N   0.555552246855646   0.277775474639990   0.875000000000000   1.0000000
N2   N   0.888889975662665   0.277778216658700   0.875000000000000   1.0000000
N2   N   0.221319435155734   0.777326384244534   0.375000000000000   1.0000000
N2   N   0.054988311111830   0.277607346071572   0.375000000000000   1.0000000
N2   N   0.375456402868433   0.255178942663862   0.375000000000000   1.0000000
N2   N   0.555526693719896   0.783184942438176   0.375000000000000   1.0000000
N2   N   0.893265394086758   0.781997467206615   0.375000000000000   1.0000000
N2   N   0.724602537087727   0.275300082509452   0.375000000000000   1.0000000
N2   N   0.055554141024346   0.944447450372405   0.875000000000000   1.0000000
N2   N   0.388894488952861   0.944448102484838   0.875000000000000   1.0000000
N2   N   0.222222830390963   0.444440188307990   0.875000000000000   1.0000000
N2   N   0.555544653624643   0.444438993478986   0.875000000000000   1.0000000
N2   N   0.722222130589069   0.944444798114520   0.875000000000000   1.0000000
N2   N   0.888886814991397   0.444441284988631   0.875000000000000   1.0000000
N2   N   0.054850695327946   0.445026910978623   0.375000000000000   1.0000000
N2   N   0.220821262456255   0.941682075271248   0.375000000000000   1.0000000
N2   N   0.555464830640814   0.944399081987070   0.375000000000000   1.0000000
N2   N   0.375456402868433   0.453610793537907   0.375000000000000   1.0000000
N2   N   0.890094368666000   0.946158880125167   0.375000000000000   1.0000000
N2   N   0.732678493942449   0.443325618642309   0.375000000000000   1.0000000
N2   N   0.222223927861883   0.611107371267626   0.875000000000000   1.0000000
N2   N   0.055553662836465   0.111111014403905   0.875000000000000   1.0000000
N2   N   0.555552246855646   0.611110105548992   0.875000000000000   1.0000000
N2   N   0.388893086591934   0.111115914320163   0.875000000000000   1.0000000
N2   N   0.888882613902452   0.611107973617897   0.875000000000000   1.0000000
N2   N   0.055738280071415   0.611584008016092   0.375000000000000   1.0000000
N2   N   0.722222130589069   0.111110665807885   0.875000000000000   1.0000000
N2   N   0.216003644627166   0.103223552960355   0.375000000000000   1.0000000
N2   N   0.387058228841852   0.616375508355143   0.375000000000000   1.0000000
N2   N   0.732678493942449   0.622686208633476   0.375000000000000   1.0000000
N2   N   0.555526693719896   0.105675084615056   0.375000000000000   1.0000000
N2   N   0.388893086591934   0.611110505605115   0.875000000000000   1.0000000
N2   N   0.889511302624883   0.111422317979112   0.375000000000000   1.0000000
N2   N   0.222224119846420   0.777778726589878   0.875000000000000   1.0000000
N2   N   0.055553662836465   0.277775981765896   0.875000000000000   1.0000000
N2   N   0.388891554875603   0.277782173994946   0.875000000000000   1.0000000
N2   N   0.555556944715170   0.777779818511657   0.875000000000000   1.0000000
N2   N   0.888886814991397   0.777778863336100   0.875000000000000   1.0000000
N2   N   0.722220480988042   0.277775485500716   0.875000000000000   1.0000000
N2   N   0.055738280071415   0.777487605388659   0.375000000000000   1.0000000
N2   N   0.387792196278776   0.779194147440120   0.375000000000000   1.0000000
N2   N   0.220560609355500   0.276946971344418   0.375000000000000   1.0000000
N2   N   0.724602537087727   0.782635787911611   0.375000000000000   1.0000000
N2   N   0.556107519995352   0.266060608781537   0.375000000000000   1.0000000
N2   N   0.890094368666000   0.277268821874167   0.375000000000000   1.0000000
N2   N   0.055554141024346   0.444440023985270   0.875000000000000   1.0000000
N2   N   0.222223927861883   0.944449889927591   0.875000000000000   1.0000000
N2   N   0.555556670086120   0.944445001709725   0.875000000000000   1.0000000
N2   N   0.388891554875603   0.444442714213993   0.875000000000000   1.0000000
N2   N   0.888889975662665   0.944445092337301   0.875000000000000   1.0000000
N2   N   0.054850695327946   0.943157117682651   0.375000000000000   1.0000000
N2   N   0.722216019370375   0.444441236752537   0.875000000000000   1.0000000
N2   N   0.387792196278776   0.941931382171993   0.375000000000000   1.0000000
N2   N   0.216003644627166   0.446113425000146   0.375000000000000   1.0000000
N2   N   0.220821262456255   0.612472520518343   0.375000000000000   1.0000000
N2   N   0.723235287634286   0.946271711372504   0.375000000000000   1.0000000
N2   N   0.893265394086758   0.444601260213478   0.375000000000000   1.0000000
N2   N   0.055552472157498   0.611106672048361   0.875000000000000   1.0000000
N2   N   0.222222830390963   0.111115975416310   0.875000000000000   1.0000000
N2   N   0.722216019370375   0.611108115951174   0.875000000000000   1.0000000
N2   N   0.555556944715170   0.111110459536849   0.875000000000000   1.0000000
N2   N   0.888889161836209   0.111111247584776   0.875000000000000   1.0000000
B2   B   0.107038511124418   0.051913258450229   0.375000000000000   1.0000000
B2   B   0.625683873657984   0.586210476944158   0.375000000000000   1.0000000
B2   B   0.444380839655017   0.050980276754108   0.375000000000000   1.0000000
B2   B   0.945850668550996   0.555663018924937   0.375000000000000   1.0000000
B2   B   0.779056000792071   0.056194667062703   0.375000000000000   1.0000000
B2   B   0.111112040616452   0.722222686974890   0.875000000000000   1.0000000
B2   B   0.444458902471693   0.722259194564188   0.875000000000000   1.0000000
B2   B   0.277736537599376   0.222187489350134   0.875000000000000   1.0000000
B2   B   0.777797171157485   0.722257197085646   0.875000000000000   1.0000000
B2   B   0.611133368435229   0.222194363143523   0.875000000000000   1.0000000
B2   B   0.944418425465941   0.222204876980458   0.875000000000000   1.0000000
B2   B   0.276990337309728   0.723044689878089   0.375000000000000   1.0000000
B2   B   0.109090900780779   0.221212117057054   0.375000000000000   1.0000000
B2   B   0.443519217342337   0.212176872350019   0.375000000000000   1.0000000
B2   B   0.613260359144710   0.732367926549907   0.375000000000000   1.0000000
B2   B   0.945850668550996   0.723520982959395   0.375000000000000   1.0000000
B2   B   0.779708993500665   0.220542855911509   0.375000000000000   1.0000000
B2   B   0.111101561512572   0.888882141041600   0.875000000000000   1.0000000
B2   B   0.444458844976642   0.888896089154985   0.875000000000000   1.0000000
B2   B   0.277736537599376   0.388882381582571   0.875000000000000   1.0000000
B2   B   0.611137372343789   0.388876717126289   0.875000000000000   1.0000000
B2   B   0.777786191524778   0.888914692833682   0.875000000000000   1.0000000
B2   B   0.944438502646460   0.388874769579839   0.875000000000000   1.0000000
B2   B   0.107038511124418   0.388458586007518   0.375000000000000   1.0000000
B2   B   0.276990337309728   0.887278980764967   0.375000000000000   1.0000000
B2   B   0.612445410288979   0.892282202624884   0.375000000000000   1.0000000
B2   B   0.945817158354686   0.891102418050455   0.375000000000000   1.0000000
B2   B   0.785038637974316   0.386761063988647   0.375000000000000   1.0000000
B2   B   0.277765433183795   0.555571743991078   0.875000000000000   1.0000000
B2   B   0.111074449412101   0.055533410270812   0.875000000000000   1.0000000
B2   B   0.611137372343789   0.555593988550829   0.875000000000000   1.0000000
B2   B   0.444458902471693   0.055533041240841   0.875000000000000   1.0000000
B2   B   0.944453600140757   0.555552462323661   0.875000000000000   1.0000000
B2   B   0.110302728400802   0.555953930789572   0.375000000000000   1.0000000
B2   B   0.777777066800378   0.055555200066857   0.875000000000000   1.0000000
B2   B   0.275392468305245   0.050916313473884   0.375000000000000   1.0000000
B2   B   0.443519217342337   0.564675678325653   0.375000000000000   1.0000000
B2   B   0.781609636795312   0.557471485064324   0.375000000000000   1.0000000
B2   B   0.612445410288979   0.053496540997424   0.375000000000000   1.0000000
B2   B   0.444454819127547   0.555600858361646   0.875000000000000   1.0000000
B2   B   0.944588083439383   0.056254020920362   0.375000000000000   1.0000000
B2   B   0.277781831968537   0.722233580310007   0.875000000000000   1.0000000
B2   B   0.111056235349498   0.222194784341413   0.875000000000000   1.0000000
B2   B   0.444454819127547   0.222187294099237   0.875000000000000   1.0000000
B2   B   0.611133368435229   0.722272338625034   0.875000000000000   1.0000000
B2   B   0.944453600140757   0.722234471150433   0.875000000000000   1.0000000
B2   B   0.777786191524778   0.222204832024424   0.875000000000000   1.0000000
B2   B   0.110925731596981   0.722129532465155   0.375000000000000   1.0000000
B2   B   0.444380839655017   0.726733896234244   0.375000000000000   1.0000000
B2   B   0.266863201318645   0.210538424692223   0.375000000000000   1.0000000
B2   B   0.785038637974316   0.731610907318998   0.375000000000000   1.0000000
B2   B   0.613260359144710   0.214225765928131   0.375000000000000   1.0000000
B2   B   0.944588083439383   0.221667395852357   0.375000000000000   1.0000000
B2   B   0.111074449412101   0.388874372474617   0.875000000000000   1.0000000
B2   B   0.277781831968537   0.888881584991858   0.875000000000000   1.0000000
B2   B   0.611128110870444   0.888913999588783   0.875000000000000   1.0000000
B2   B   0.444445171917152   0.388889252625240   0.875000000000000   1.0000000
B2   B   0.944438502646460   0.888897066399949   0.875000000000000   1.0000000
B2   B   0.110302728400802   0.887682130944558   0.375000000000000   1.0000000
B2   B   0.777797171157485   0.388873307405168   0.875000000000000   1.0000000
B2   B   0.444503602630079   0.888918467981704   0.375000000000000   1.0000000
B2   B   0.266863201318645   0.389658109959751   0.375000000000000   1.0000000
B2   B   0.275392468305245   0.557809488164696   0.375000000000000   1.0000000
B2   B   0.625683873657984   0.372806730047155   0.375000000000000   1.0000000
B2   B   0.779708993500665   0.892499470922484   0.375000000000000   1.0000000
B2   B   0.945817158354686   0.388048073637560   0.375000000000000   1.0000000
B2   B   0.111101561512572   0.555552753804301   0.875000000000000   1.0000000
B2   B   0.277765433183795   0.055527022526054   0.875000000000000   1.0000000
B2   B   0.777801239070367   0.555567286201852   0.875000000000000   1.0000000
B2   B   0.611128110870444   0.055547444614991   0.875000000000000   1.0000000
B2   B   0.944418425465941   0.055546881818818   0.875000000000000   1.0000000
B2   B   0.055424751349306   0.111004636053573   0.124829327511918   1.0000000
B2   B   0.555581854429859   0.611254662749957   0.124410720585211   1.0000000
B2   B   0.388804474900848   0.110897632557315   0.124796831162424   1.0000000
B2   B   0.888971101255325   0.611152217294334   0.124963622400431   1.0000000
B2   B   0.722228240440193   0.111088272890079   0.124891805531789   1.0000000
B2   B   0.055553715334708   0.777749551226597   0.625054592736301   1.0000000
B2   B   0.388851645020928   0.777819755669906   0.625090238536312   1.0000000
B2   B   0.221974957047911   0.277654145190623   0.625358793940135   1.0000000
B2   B   0.722266796856325   0.777865483064323   0.625248026293086   1.0000000
B2   B   0.555581854429859   0.277660525013238   0.625589279414789   1.0000000
B2   B   0.888867505584046   0.277767915413328   0.625120200388193   1.0000000
B2   B   0.222186955543973   0.777760144438654   0.124902523401468   1.0000000
B2   B   0.055424751349306   0.277753448629068   0.124829327511918   1.0000000
B2   B   0.388686248980883   0.277438275658410   0.124460853590048   1.0000000
B2   B   0.555556095437528   0.777866567415561   0.124853593244055   1.0000000
B2   B   0.888929214634137   0.777804181089928   0.124876155389922   1.0000000
B2   B   0.722266796856325   0.277734647125340   0.124751973706914   1.0000000
B2   B   0.055482367208019   0.944340208797434   0.625105247838046   1.0000000
B2   B   0.388851645020928   0.944365222684359   0.625090238536312   1.0000000
B2   B   0.222032128070470   0.444508227602018   0.625168632887036   1.0000000
B2   B   0.555683029781235   0.444508181557282   0.625433842730138   1.0000000
B2   B   0.722228240440193   0.944473300883450   0.625108194468211   1.0000000
B2   B   0.888929214634137   0.444458366877546   0.625123844610078   1.0000000
B2   B   0.055482367208019   0.444475491743914   0.124894752161954   1.0000000
B2   B   0.222147654128218   0.944308326342126   0.124919414099901   1.0000000
B2   B   0.555552765074182   0.944443049203755   0.124906308482235   1.0000000
B2   B   0.388686248980883   0.444581306655808   0.124460853590048   1.0000000
B2   B   0.888867505584046   0.944432923504054   0.124879799611807   1.0000000
B2   B   0.722346728604005   0.444456596030760   0.124390696170085   1.0000000
B2   B   0.222147654128218   0.611172661119427   0.625080585900098   1.0000000
B2   B   0.055424751349306   0.111004636053573   0.625170672488082   1.0000000
B2   B   0.555581854429859   0.611254662749957   0.625589279414789   1.0000000
B2   B   0.388804474900848   0.110897632557315   0.625203168837576   1.0000000
B2   B   0.888971101255325   0.611152217294334   0.625036377599569   1.0000000
B2   B   0.055553715334708   0.611137497441447   0.124945407263699   1.0000000
B2   B   0.722228240440193   0.111088272890079   0.625108194468211   1.0000000
B2   B   0.222032128070470   0.110857233801787   0.124831367112964   1.0000000
B2   B   0.388804474900848   0.611240175676875   0.124796831162424   1.0000000
B2   B   0.722346728604005   0.611223465906581   0.124390696170085   1.0000000
B2   B   0.555556095437528   0.111022861355302   0.124853593244055   1.0000000
B2   B   0.388804474900848   0.611240175676875   0.625203168837576   1.0000000
B2   B   0.888845156212968   0.111089244773155   0.124874024498416   1.0000000
B2   B   0.222186955543973   0.777760144438654   0.625097476598533   1.0000000
B2   B   0.055424751349306   0.277753448629068   0.625170672488082   1.0000000
B2   B   0.388686248980883   0.277438275658410   0.625539146409951   1.0000000
B2   B   0.555556095437528   0.777866567415561   0.625146406755945   1.0000000
B2   B   0.888929214634137   0.777804181089928   0.625123844610078   1.0000000
B2   B   0.722266796856325   0.277734647125340   0.625248026293086   1.0000000
B2   B   0.055553715334708   0.777749551226597   0.124945407263699   1.0000000
B2   B   0.388851645020928   0.777819755669906   0.124909761463688   1.0000000
B2   B   0.221974957047911   0.277654145190623   0.124641206059865   1.0000000
B2   B   0.722266796856325   0.777865483064323   0.124751973706914   1.0000000
B2   B   0.555581854429859   0.277660525013238   0.124410720585211   1.0000000
B2   B   0.888867505584046   0.277767915413328   0.124879799611807   1.0000000
B2   B   0.055482367208019   0.444475491743914   0.625105247838046   1.0000000
B2   B   0.222147654128218   0.944308326342126   0.625080585900098   1.0000000
B2   B   0.555552765074182   0.944443049203755   0.625093691517767   1.0000000
B2   B   0.388686248980883   0.444581306655808   0.625539146409951   1.0000000
B2   B   0.888867505584046   0.944432923504054   0.625120200388193   1.0000000
B2   B   0.055482367208019   0.944340208797434   0.124894752161954   1.0000000
B2   B   0.722346728604005   0.444456596030760   0.625609303829915   1.0000000
B2   B   0.388851645020928   0.944365222684359   0.124909761463688   1.0000000
B2   B   0.222032128070470   0.444508227602018   0.124831367112964   1.0000000
B2   B   0.222147654128218   0.611172661119427   0.124919414099901   1.0000000
B2   B   0.555683029781235   0.444508181557282   0.124566157269863   1.0000000
B2   B   0.722228240440193   0.944473300883450   0.124891805531789   1.0000000
B2   B   0.888929214634137   0.444458366877546   0.124876155389922   1.0000000
B2   B   0.055553715334708   0.611137497441447   0.625054592736301   1.0000000
B2   B   0.222032128070470   0.110857233801787   0.625168632887036   1.0000000
B2   B   0.722346728604005   0.611223465906581   0.625609303829915   1.0000000
B2   B   0.555556095437528   0.111022861355302   0.625146406755945   1.0000000
B2   B   0.888845156212968   0.111089244773155   0.625125975501585   1.0000000


