data_1
_audit_creation_method   'vasp2cif'
_cell_length_a    17.52789999999977
_cell_length_b    17.52789999999977
_cell_length_c    15.0
_cell_angle_alpha    90.0
_cell_angle_beta    90.0
_cell_angle_gamma    119.99999999999916

_symmetry_space_group_name_H-M    'P 1'
loop_
_atom_site_label
_atom_site_type_symbol
_atom_site_fract_x
_atom_site_fract_y
_atom_site_fract_z
_atom_site_occupancy
B2   B   0.905164098462143   0.952727108917031   0.111028587154793   1.0000000
B2   B   0.904960563911050   0.095490874262895   0.111070518015961   1.0000000
B2   B   0.904975311068487   0.238230799184437   0.111083674984335   1.0000000
B2   B   0.904927588368526   0.380911654986657   0.111000977352185   1.0000000
B2   B   0.905121417019906   0.523840125726450   0.111022300734662   1.0000000
B2   B   0.905254913321933   0.666753938431934   0.111158106878899   1.0000000
B2   B   0.905271653095682   0.809925160963014   0.111117087958289   1.0000000
B2   B   0.047614341435949   0.952287440520607   0.110981602764419   1.0000000
B2   B   0.047616506124641   0.095110628054051   0.111015523070296   1.0000000
B2   B   0.047520876334184   0.238035576193511   0.111022991133832   1.0000000
B2   B   0.047511580427107   0.380891145916410   0.111030519211259   1.0000000
B2   B   0.047616473484594   0.523891050663916   0.110983940118277   1.0000000
B2   B   0.047622270183417   0.666711350695762   0.110968443824148   1.0000000
B2   B   0.047737715122492   0.809560230767861   0.110955216838592   1.0000000
B2   B   0.190215361370697   0.952039884141478   0.110924094399866   1.0000000
B2   B   0.189954692999248   0.094561461331160   0.111062165577222   1.0000000
B2   B   0.189950551854898   0.237368338949078   0.111029980291536   1.0000000
B2   B   0.190109422502344   0.380739231973540   0.111017534166788   1.0000000
B2   B   0.189979222887946   0.523975492757912   0.111091423860268   1.0000000
B2   B   0.189983345753837   0.666780430368033   0.111061389771792   1.0000000
B2   B   0.190230966037659   0.809543531716296   0.110925411611958   1.0000000
B2   B   0.333081928955182   0.952225027328678   0.110970021535190   1.0000000
B2   B   0.332946116863674   0.094273742547954   0.111068388993497   1.0000000
B2   B   0.332292711894391   0.236261732084960   0.111117103804938   1.0000000
B2   B   0.332875681177455   0.378816793941300   0.110941442830659   1.0000000
B2   B   0.332919737916250   0.525429386172873   0.110986253977945   1.0000000
B2   B   0.332334470388022   0.667429356068314   0.111181972196423   1.0000000
B2   B   0.332982576753703   0.810073708802660   0.111071992939043   1.0000000
B2   B   0.476003612884190   0.952703069289819   0.111027641894497   1.0000000
B2   B   0.475983476696198   0.094737129993434   0.111035674028661   1.0000000
B2   B   0.475914482925622   0.236432300444396   0.111116764258075   1.0000000
B2   B   0.474149439499306   0.376758994600951   0.110904539532778   1.0000000
B2   B   0.474208262069288   0.668891011956553   0.110946405959064   1.0000000
B2   B   0.475960669242512   0.810971843882842   0.111123007542987   1.0000000
B2   B   0.619114516467224   0.953081863090314   0.111067970362738   1.0000000
B2   B   0.619134782463790   0.095316900270892   0.111017650592780   1.0000000
B2   B   0.619079905420884   0.237505772161208   0.111068969324863   1.0000000
B2   B   0.619423442414203   0.380236695933253   0.111094254761456   1.0000000
B2   B   0.621350551334379   0.524630373794106   0.110893846050941   1.0000000
B2   B   0.621457691282984   0.668275647308606   0.110861545613603   1.0000000
B2   B   0.619504743438123   0.810721603154654   0.111049565871073   1.0000000
B2   B   0.762436349539373   0.953071767556620   0.111063342785079   1.0000000
B2   B   0.762053629763156   0.095445081383110   0.111062558662486   1.0000000
B2   B   0.762033017847655   0.238100347812079   0.111064851619740   1.0000000
B2   B   0.762367619320726   0.380801711503381   0.111069564555554   1.0000000
B2   B   0.762753628893512   0.523669580362119   0.111180412971160   1.0000000
B2   B   0.763100422338297   0.667272975319369   0.111178714954319   1.0000000
B2   B   0.762817614792873   0.810590243610137   0.111055225320095   1.0000000
N2   N   0.952410697828805   0.904817492908133   0.111017333395761   1.0000000
N2   N   0.952411235863064   0.047725946472717   0.111007722456710   1.0000000
N2   N   0.952405056869378   0.190547517136402   0.111063832777509   1.0000000
N2   N   0.952396247544582   0.333318499908584   0.111025892089384   1.0000000
N2   N   0.952397217561498   0.476111881191301   0.110941863103047   1.0000000
N2   N   0.952400978369762   0.618998198504177   0.111026061543006   1.0000000
N2   N   0.952308256521536   0.761856966857450   0.111097550908435   1.0000000
N2   N   0.095089063904962   0.904616306816376   0.110893219162174   1.0000000
N2   N   0.095022346208677   0.047347622168151   0.111006394253515   1.0000000
N2   N   0.095040615535028   0.190261677458209   0.110995232827641   1.0000000
N2   N   0.095044709206426   0.333225426556908   0.110997777548631   1.0000000
N2   N   0.095060334713089   0.476181221753054   0.111020460561821   1.0000000
N2   N   0.095040764749937   0.619061579752300   0.110971636175691   1.0000000
N2   N   0.095098765074287   0.761852027251633   0.110894506650188   1.0000000
N2   N   0.237996387548843   0.904678369763626   0.110894020839379   1.0000000
N2   N   0.237888920250452   0.047229291799312   0.111011306529959   1.0000000
N2   N   0.237560253341533   0.189701190676350   0.111072092930230   1.0000000
N2   N   0.237376113353850   0.332660292830089   0.110982869501877   1.0000000
N2   N   0.237410595894085   0.476100786532315   0.111061046008723   1.0000000
N2   N   0.237603469691650   0.619253460527104   0.111105523393918   1.0000000
N2   N   0.237921556464896   0.762041268836149   0.111017135716674   1.0000000
N2   N   0.380898612674791   0.904972093826127   0.110978404199839   1.0000000
N2   N   0.380877015547118   0.047302637757680   0.110999704514168   1.0000000
N2   N   0.380812300742044   0.189595537921072   0.111087593091542   1.0000000
N2   N   0.380145441538559   0.331334301965426   0.111058435847535   1.0000000
N2   N   0.371341380267664   0.471338842320853   0.110520913931894   1.0000000
N2   N   0.380204644288484   0.620216333282159   0.111126332430579   1.0000000
N2   N   0.380859775210401   0.762630052213920   0.111140326300351   1.0000000
N2   N   0.523936977156768   0.905588102513228   0.111063525388692   1.0000000
N2   N   0.523914448236066   0.047686132692965   0.111003710744265   1.0000000
N2   N   0.523898089599278   0.189793303432538   0.111075873969369   1.0000000
N2   N   0.524073995772752   0.331661619366041   0.111058280301224   1.0000000
N2   N   0.528711744908203   0.469243267054881   0.110477958353888   1.0000000
N2   N   0.528821539216653   0.631030185007732   0.110539918553374   1.0000000
N2   N   0.524142303345718   0.763921788815835   0.111051318121112   1.0000000
N2   N   0.666961765278189   0.905474964177118   0.111072626717616   1.0000000
N2   N   0.666820601567038   0.047895989993239   0.111008590136531   1.0000000
N2   N   0.666802221406177   0.190414979891093   0.111025886777091   1.0000000
N2   N   0.666899420611669   0.332949850183500   0.111074661777510   1.0000000
N2   N   0.667460029139109   0.475611102781630   0.111099682997558   1.0000000
N2   N   0.667242210946384   0.619361215018470   0.110999414045914   1.0000000
N2   N   0.667543102857892   0.763393714526763   0.110997611154074   1.0000000
N2   N   0.809870532959947   0.905290336809046   0.111028666387887   1.0000000
N2   N   0.809701183312170   0.047916811037538   0.111061700974619   1.0000000
N2   N   0.809580396465705   0.190541473657617   0.111063830056233   1.0000000
N2   N   0.809667339177574   0.333255413211522   0.111028971495577   1.0000000
N2   N   0.809813142506855   0.476020538355178   0.111082577893791   1.0000000
N2   N   0.809685411376425   0.618959785902072   0.111214928423102   1.0000000
N2   N   0.809703486955351   0.762185541166739   0.111119750702321   1.0000000


