data_1
_audit_creation_method   'vasp2cif'
_cell_length_a    17.52789999999977
_cell_length_b    17.52789999999977
_cell_length_c    15.0
_cell_angle_alpha    90.0
_cell_angle_beta    90.0
_cell_angle_gamma    119.99999999999916

_symmetry_space_group_name_H-M    'P 1'
loop_
_atom_site_label
_atom_site_type_symbol
_atom_site_fract_x
_atom_site_fract_y
_atom_site_fract_z
_atom_site_occupancy
Al2   Al   0.526827501003913   0.625948598259753   0.112011898975804   1.0000000
B2   B   0.907928196885351   0.954884178292827   0.111065091086369   1.0000000
B2   B   0.904381906744200   0.095189706993958   0.111005632771306   1.0000000
B2   B   0.903711337139886   0.237355719044165   0.111075027858921   1.0000000
B2   B   0.904530779233961   0.380213410709492   0.110920885010819   1.0000000
B2   B   0.907839521945543   0.524012359305750   0.111114658774456   1.0000000
B2   B   0.912293651467161   0.668817043292071   0.111492571578321   1.0000000
B2   B   0.911786926895906   0.813828740060183   0.111373990509829   1.0000000
B2   B   0.049656229048816   0.953319923856400   0.110938115548274   1.0000000
B2   B   0.046588019618385   0.094057818851508   0.110891897140998   1.0000000
B2   B   0.044953340748057   0.236359473614123   0.110959884968997   1.0000000
B2   B   0.044940235663810   0.379760234566407   0.110839766224320   1.0000000
B2   B   0.046486594140124   0.523651980637517   0.110640333058838   1.0000000
B2   B   0.049583497559084   0.667662489436632   0.110808704715480   1.0000000
B2   B   0.050653193957553   0.811046486739423   0.111042058041223   1.0000000
B2   B   0.190966216938659   0.952255192948885   0.111009169236243   1.0000000
B2   B   0.188767812619645   0.092606319543945   0.110956931090946   1.0000000
B2   B   0.184956181360103   0.232782846197395   0.110965326072336   1.0000000
B2   B   0.184907255640516   0.378199297136399   0.111274324716931   1.0000000
B2   B   0.185077202667934   0.523452415257013   0.111020642768681   1.0000000
B2   B   0.187943705549338   0.667637781454361   0.110693784898809   1.0000000
B2   B   0.190782273903503   0.810497269131539   0.110728604499016   1.0000000
B2   B   0.332882681135516   0.952528384838013   0.110762388610319   1.0000000
B2   B   0.332225799546679   0.092796002816893   0.111126098110630   1.0000000
B2   B   0.327777638485267   0.230726723459282   0.111018300712418   1.0000000
B2   B   0.321636390178989   0.371051581600137   0.111732244147392   1.0000000
B2   B   0.322787537551887   0.522340647622676   0.112101961584834   1.0000000
B2   B   0.326007199013554   0.668359505193615   0.111937361436610   1.0000000
B2   B   0.331718165676145   0.811320541046630   0.110790208637411   1.0000000
B2   B   0.475596233652230   0.954809380011833   0.110358631425314   1.0000000
B2   B   0.475797344000275   0.093389621974198   0.110883295655603   1.0000000
B2   B   0.475092817343462   0.230499964048313   0.111319640679543   1.0000000
B2   B   0.465971929180956   0.356461240630559   0.110971498636592   1.0000000
B2   B   0.445945785895425   0.510836510082943   0.108647945434152   1.0000000
B2   B   0.463290499943790   0.680875005229652   0.109906944887596   1.0000000
B2   B   0.474398987087795   0.816959724533270   0.112141817460657   1.0000000
B2   B   0.619291877127616   0.954042212490493   0.110787924605923   1.0000000
B2   B   0.619273323446726   0.095290381889262   0.110613510922379   1.0000000
B2   B   0.619718242572300   0.236537201166597   0.111152149694552   1.0000000
B2   B   0.621340637519843   0.378655737630019   0.111189585596182   1.0000000
B2   B   0.645186604569155   0.536493490616113   0.109393754336523   1.0000000
B2   B   0.646337749159568   0.678026179934960   0.111321383643047   1.0000000
B2   B   0.619966877404810   0.812225065419162   0.111896427885897   1.0000000
B2   B   0.763259862741572   0.954013018924698   0.111093264926045   1.0000000
B2   B   0.761956513643927   0.095493377022198   0.110878473401534   1.0000000
B2   B   0.762110400529168   0.237483787606470   0.111004963733262   1.0000000
B2   B   0.763717184191470   0.380111283560237   0.111141292119569   1.0000000
B2   B   0.770253894327995   0.524757101582843   0.111299981549815   1.0000000
B2   B   0.780256635763528   0.674634284255196   0.110616266710936   1.0000000
B2   B   0.770287143017553   0.816313887706209   0.111224344496475   1.0000000
N2   N   0.956056610299616   0.907688587356769   0.111049103890292   1.0000000
N2   N   0.952811595211319   0.048559884817934   0.110951006506654   1.0000000
N2   N   0.950750948675098   0.189663633158664   0.111026708501802   1.0000000
N2   N   0.950731635910883   0.332089040951272   0.110937353596738   1.0000000
N2   N   0.952553030075676   0.475188125347924   0.110809450154373   1.0000000
N2   N   0.956076281880021   0.619192671677774   0.111098984405802   1.0000000
N2   N   0.956962228023058   0.763889178858144   0.111266972434007   1.0000000
N2   N   0.096781694082509   0.905576274496881   0.110924494238262   1.0000000
N2   N   0.094865182324356   0.047162295880044   0.110839871128146   1.0000000
N2   N   0.091548634523003   0.187798523861166   0.110833374386477   1.0000000
N2   N   0.091056746121541   0.331093293409670   0.110935799529481   1.0000000
N2   N   0.091409534811877   0.474771496365910   0.110602425402641   1.0000000
N2   N   0.094181778867411   0.618827283925564   0.110518130154660   1.0000000
N2   N   0.096591272124637   0.762652359274148   0.110855429906632   1.0000000
N2   N   0.238263476737585   0.905160240771314   0.110906218416674   1.0000000
N2   N   0.237593293701335   0.046526574357511   0.111045824219361   1.0000000
N2   N   0.233985757449131   0.186238889075879   0.110868595955163   1.0000000
N2   N   0.228914950646892   0.326125518496131   0.111311349065074   1.0000000
N2   N   0.229334082557310   0.473850801851737   0.111490706094564   1.0000000
N2   N   0.232225719064741   0.618901431319201   0.111103595815621   1.0000000
N2   N   0.236928369629566   0.762773399211546   0.110499926625524   1.0000000
N2   N   0.380484327233195   0.906181375756148   0.110385137125319   1.0000000
N2   N   0.380775208613308   0.046900676752652   0.110979547755296   1.0000000
N2   N   0.379510891790631   0.186900808602531   0.111084228310929   1.0000000
N2   N   0.373248641340584   0.324291265239468   0.111090206883796   1.0000000
N2   N   0.357244650370797   0.462888461682171   0.112395843390961   1.0000000
N2   N   0.369925529592459   0.620042087639605   0.112133769841666   1.0000000
N2   N   0.378317581714597   0.764568116998651   0.111680140146003   1.0000000
N2   N   0.524076347015205   0.910147081120879   0.110581640370735   1.0000000
N2   N   0.524277854232678   0.048458874768688   0.110403619504671   1.0000000
N2   N   0.524460716056879   0.187045341467845   0.111167501566444   1.0000000
N2   N   0.524338107719904   0.323937367170556   0.111415849803775   1.0000000
N2   N   0.522832358808006   0.773248703449743   0.113065692348022   1.0000000
N2   N   0.667912631678806   0.907033811875748   0.111237069309159   1.0000000
N2   N   0.667209595644332   0.048570278200032   0.110558874328421   1.0000000
N2   N   0.667323711102939   0.190016579182651   0.110894412089633   1.0000000
N2   N   0.668340136862486   0.331943976632071   0.111245378983692   1.0000000
N2   N   0.675244632816384   0.475709092860733   0.110679967693885   1.0000000
N2   N   0.689402726556810   0.628144905620232   0.108703194031431   1.0000000
N2   N   0.676947201753801   0.770643523114151   0.111388073638738   1.0000000
N2   N   0.814217499224073   0.909584630989887   0.111137960450504   1.0000000
N2   N   0.809762037218421   0.048450575206079   0.110938786381938   1.0000000
N2   N   0.809200669212475   0.190108871745484   0.111022313246877   1.0000000
N2   N   0.809903100514182   0.332308266656824   0.110961054661071   1.0000000
N2   N   0.813652213437859   0.475289704458393   0.111256261024233   1.0000000
N2   N   0.819451071934582   0.620574699949922   0.111645471819979   1.0000000
N2   N   0.818915982393919   0.768217538079279   0.111447830327759   1.0000000
Se2   Se   0.523838083297653   0.474576618385004   0.110443893948931   1.0000000


