data_1
_audit_creation_method   'vasp2cif'
_cell_length_a    14.93631414619966
_cell_length_b    14.936314146199727
_cell_length_c    13.341276283792837
_cell_angle_alpha    90.0
_cell_angle_beta    90.0
_cell_angle_gamma    119.99999999999984

_symmetry_space_group_name_H-M    'P 1'
loop_
_atom_site_label
_atom_site_type_symbol
_atom_site_fract_x
_atom_site_fract_y
_atom_site_fract_z
_atom_site_occupancy
O2   O   0.444444444444443   0.388888888888886   0.375000000000000   1.0000000
N2   N   0.111107127915633   0.055556024563395   0.125014115639431   1.0000000
N2   N   0.611105293544222   0.555565089572152   0.125049398875433   1.0000000
N2   N   0.444448896647762   0.055556024563395   0.125014115639431   1.0000000
N2   N   0.944442749315772   0.555553787149386   0.125011580082587   1.0000000
N2   N   0.777777777777779   0.055555555555557   0.125000459809382   1.0000000
N2   N   0.111111111111114   0.722222222222221   0.624995297121972   1.0000000
N2   N   0.444448896647762   0.722226205417703   0.624985884360569   1.0000000
N2   N   0.277768243761184   0.222228039789114   0.624950601124567   1.0000000
N2   N   0.777777308769941   0.722226205417703   0.624985884360569   1.0000000
N2   N   0.611120042780550   0.222213290552786   0.624988214138273   1.0000000
N2   N   0.944437659932237   0.222220222003911   0.624993043347040   1.0000000
N2   N   0.277779546183950   0.722222295499722   0.125011580082587   1.0000000
N2   N   0.111093247772243   0.222213290552786   0.125011785861727   1.0000000
N2   N   0.444459796027930   0.222228039789114   0.125049398875433   1.0000000
N2   N   0.611120042780550   0.722240085561093   0.125011785861727   1.0000000
N2   N   0.944442749315772   0.722222295499722   0.125011580082587   1.0000000
N2   N   0.777782562071673   0.222220222003911   0.125006956652960   1.0000000
N2   N   0.111111037833613   0.888890584017556   0.624988419917413   1.0000000
N2   N   0.444445307505054   0.888889320419191   0.624987793641709   1.0000000
N2   N   0.277768243761184   0.388873537305399   0.624950601124567   1.0000000
N2   N   0.611105293544222   0.388873537305399   0.624950601124567   1.0000000
N2   N   0.777782562071673   0.888895673401092   0.624993043347040   1.0000000
N2   N   0.944444012914137   0.388888025828275   0.624987793641709   1.0000000
N2   N   0.111107127915633   0.388884436685567   0.125014115639431   1.0000000
N2   N   0.277779546183950   0.888890584017556   0.125011580082587   1.0000000
N2   N   0.611113111329425   0.888895673401092   0.125006956652960   1.0000000
N2   N   0.444444444444443   0.388888888888886   0.124896050596308   1.0000000
N2   N   0.944444012914137   0.888889320419191   0.125012206358291   1.0000000
N2   N   0.777777308769941   0.388884436685567   0.125014115639431   1.0000000
N2   N   0.277781117181880   0.555552216151456   0.624986335699735   1.0000000
N2   N   0.111107127915633   0.055556024563395   0.624985884360569   1.0000000
N2   N   0.611105293544222   0.555565089572152   0.624950601124567   1.0000000
N2   N   0.444448896647762   0.055556024563395   0.624985884360569   1.0000000
N2   N   0.944442749315772   0.555553787149386   0.624988419917413   1.0000000
N2   N   0.111111037833613   0.555553787149386   0.125011580082587   1.0000000
N2   N   0.777777777777779   0.055555555555557   0.624999540190618   1.0000000
N2   N   0.277781117181880   0.055562234363759   0.125013664300265   1.0000000
N2   N   0.444459796027930   0.555565089572152   0.125049398875433   1.0000000
N2   N   0.777771098969576   0.555552216151456   0.125013664300265   1.0000000
N2   N   0.611113111329425   0.055550771261662   0.125006956652960   1.0000000
N2   N   0.444459796027930   0.555565089572152   0.624950601124567   1.0000000
N2   N   0.944437659932237   0.055550771261662   0.125006956652960   1.0000000
N2   N   0.277779546183950   0.722222295499722   0.624988419917413   1.0000000
N2   N   0.111093247772243   0.222213290552786   0.624988214138273   1.0000000
N2   N   0.444459796027930   0.222228039789114   0.624950601124567   1.0000000
N2   N   0.611120042780550   0.722240085561093   0.624988214138273   1.0000000
N2   N   0.944442749315772   0.722222295499722   0.624988419917413   1.0000000
N2   N   0.777782562071673   0.222220222003911   0.624993043347040   1.0000000
N2   N   0.111111111111114   0.722222222222221   0.125004702878027   1.0000000
N2   N   0.444448896647762   0.722226205417703   0.125014115639431   1.0000000
N2   N   0.277768243761184   0.222228039789114   0.125049398875433   1.0000000
N2   N   0.777777308769941   0.722226205417703   0.125014115639431   1.0000000
N2   N   0.611120042780550   0.222213290552786   0.125011785861727   1.0000000
N2   N   0.944437659932237   0.222220222003911   0.125006956652960   1.0000000
N2   N   0.111107127915633   0.388884436685567   0.624985884360569   1.0000000
N2   N   0.277779546183950   0.888890584017556   0.624988419917413   1.0000000
N2   N   0.611113111329425   0.888895673401092   0.624993043347040   1.0000000
N2   N   0.444444444444443   0.388888888888886   0.625103949403692   1.0000000
N2   N   0.944444012914137   0.888889320419191   0.624987793641709   1.0000000
N2   N   0.111111037833613   0.888890584017556   0.125011580082587   1.0000000
N2   N   0.777777308769941   0.388884436685567   0.624985884360569   1.0000000
N2   N   0.444445307505054   0.888889320419191   0.125012206358291   1.0000000
N2   N   0.277768243761184   0.388873537305399   0.125049398875433   1.0000000
N2   N   0.277781117181880   0.555552216151456   0.125013664300265   1.0000000
N2   N   0.611105293544222   0.388873537305399   0.125049398875433   1.0000000
N2   N   0.777782562071673   0.888895673401092   0.125006956652960   1.0000000
N2   N   0.944444012914137   0.388888025828275   0.125012206358291   1.0000000
N2   N   0.111111037833613   0.555553787149386   0.624988419917413   1.0000000
N2   N   0.277781117181880   0.055562234363759   0.624986335699735   1.0000000
N2   N   0.777771098969576   0.555552216151456   0.624986335699735   1.0000000
N2   N   0.611113111329425   0.055550771261662   0.624993043347040   1.0000000
N2   N   0.944437659932237   0.055550771261662   0.624993043347040   1.0000000
N2   N   0.055119802301919   0.110797662238169   0.375000000000000   1.0000000
N2   N   0.556002518311149   0.612005036622298   0.375000000000000   1.0000000
N2   N   0.388504447504062   0.109352151114876   0.375000000000000   1.0000000
N2   N   0.889517291625411   0.611425312479377   0.375000000000000   1.0000000
N2   N   0.722289183903948   0.111044149429388   0.375000000000000   1.0000000
N2   N   0.055555391834357   0.777777941498979   0.875000000000000   1.0000000
N2   N   0.388888761345576   0.777778803947338   0.875000000000000   1.0000000
N2   N   0.222223012604370   0.277778172968853   0.875000000000000   1.0000000
N2   N   0.722223178280868   0.777777655823811   0.875000000000000   1.0000000
N2   N   0.555555160364483   0.277778172968853   0.875000000000000   1.0000000
N2   N   0.888889973524278   0.277779947048564   0.875000000000000   1.0000000
N2   N   0.222096031594018   0.777714682463677   0.375000000000000   1.0000000
N2   N   0.055119802301919   0.277655473397086   0.375000000000000   1.0000000
N2   N   0.383477605477490   0.266955210954988   0.375000000000000   1.0000000
N2   N   0.555677859936250   0.778213531031416   0.375000000000000   1.0000000
N2   N   0.889362966997516   0.778139312227631   0.375000000000000   1.0000000
N2   N   0.722535671095167   0.277655473397086   0.375000000000000   1.0000000
N2   N   0.055554529385998   0.944443290731574   0.875000000000000   1.0000000
N2   N   0.388888761345576   0.944443290731574   0.875000000000000   1.0000000
N2   N   0.222222099541294   0.444444504827823   0.875000000000000   1.0000000
N2   N   0.555555269875997   0.444444301604663   0.875000000000000   1.0000000
N2   N   0.722221751834874   0.944443503669748   0.875000000000000   1.0000000
N2   N   0.888890042601755   0.444444571987752   0.875000000000000   1.0000000
N2   N   0.055194021105705   0.444556988103221   0.375000000000000   1.0000000
N2   N   0.221908020853959   0.943816041707918   0.375000000000000   1.0000000
N2   N   0.555616195848763   0.944474764591046   0.375000000000000   1.0000000
N2   N   0.383477605477490   0.449855727855838   0.375000000000000   1.0000000
N2   N   0.888858568742283   0.944474764591046   0.375000000000000   1.0000000
N2   N   0.723981182218460   0.444828885829267   0.375000000000000   1.0000000
N2   N   0.222221558286088   0.611111775047247   0.875000000000000   1.0000000
N2   N   0.055555677509524   0.111110155052468   0.875000000000000   1.0000000
N2   N   0.555555160364483   0.611110320728966   0.875000000000000   1.0000000
N2   N   0.388888828505506   0.111110928046807   0.875000000000000   1.0000000
N2   N   0.888890216761153   0.611111775047247   0.875000000000000   1.0000000
N2   N   0.055618650869659   0.611237301739318   0.375000000000000   1.0000000
N2   N   0.722221751834874   0.111111581498462   0.875000000000000   1.0000000
N2   N   0.220847703610807   0.109352151114876   0.375000000000000   1.0000000
N2   N   0.388504447504062   0.612485629722529   0.375000000000000   1.0000000
N2   N   0.723981182218460   0.612485629722529   0.375000000000000   1.0000000
N2   N   0.555677859936250   0.110797662238169   0.375000000000000   1.0000000
N2   N   0.388888828505506   0.611111233792041   0.875000000000000   1.0000000
N2   N   0.888754965525433   0.111044149429388   0.375000000000000   1.0000000
N2   N   0.222222549664621   0.777777941498979   0.875000000000000   1.0000000
N2   N   0.055555677509524   0.277778855790392   0.875000000000000   1.0000000
N2   N   0.388889031728666   0.277778063457338   0.875000000000000   1.0000000
N2   N   0.555554477542943   0.777777655823811   0.875000000000000   1.0000000
N2   N   0.888890042601755   0.777778803947338   0.875000000000000   1.0000000
N2   N   0.722223178280868   0.277778855790392   0.875000000000000   1.0000000
N2   N   0.055618650869659   0.777714682463677   0.375000000000000   1.0000000
N2   N   0.388776345230108   0.778139312227631   0.375000000000000   1.0000000
N2   N   0.221328296711038   0.277330815022186   0.375000000000000   1.0000000
N2   N   0.722535671095167   0.778213531031416   0.375000000000000   1.0000000
N2   N   0.556002518311149   0.277330815022186   0.375000000000000   1.0000000
N2   N   0.888858568742283   0.277717137484573   0.375000000000000   1.0000000
N2   N   0.055554529385998   0.444444571987752   0.875000000000000   1.0000000
N2   N   0.222221558286088   0.944443116572176   0.875000000000000   1.0000000
N2   N   0.555553386284772   0.944443359809050   0.875000000000000   1.0000000
N2   N   0.388889031728666   0.444444301604663   0.875000000000000   1.0000000
N2   N   0.888889973524278   0.944443359809050   0.875000000000000   1.0000000
N2   N   0.055194021105705   0.943970366335812   0.375000000000000   1.0000000
N2   N   0.722222405286529   0.444444504827823   0.875000000000000   1.0000000
N2   N   0.388776345230108   0.943970366335812   0.375000000000000   1.0000000
N2   N   0.220847703610807   0.444828885829267   0.375000000000000   1.0000000
N2   N   0.221908020853959   0.611425312479377   0.375000000000000   1.0000000
N2   N   0.566378122378348   0.449855727855838   0.375000000000000   1.0000000
N2   N   0.722289183903948   0.944578367807895   0.375000000000000   1.0000000
N2   N   0.889362966997516   0.444556988103221   0.375000000000000   1.0000000
N2   N   0.055555391834357   0.611110783668714   0.875000000000000   1.0000000
N2   N   0.222222099541294   0.111110928046807   0.875000000000000   1.0000000
N2   N   0.722222405286529   0.611111233792041   0.875000000000000   1.0000000
N2   N   0.555554477542943   0.111110155052468   0.875000000000000   1.0000000
N2   N   0.888889829663581   0.111111581498462   0.875000000000000   1.0000000
B2   B   0.110148732853129   0.054677841091389   0.375000000000000   1.0000000
B2   B   0.613166691435275   0.558289776746061   0.375000000000000   1.0000000
B2   B   0.444529108238260   0.054677841091389   0.375000000000000   1.0000000
B2   B   0.944736444865842   0.555663954202956   0.375000000000000   1.0000000
B2   B   0.777777777777779   0.055555555555557   0.375000000000000   1.0000000
B2   B   0.111111111111114   0.722222222222221   0.875000000000000   1.0000000
B2   B   0.444442930586193   0.722216675003711   0.875000000000000   1.0000000
B2   B   0.277788296464457   0.222230917713953   0.875000000000000   1.0000000
B2   B   0.777773744417518   0.722216675003711   0.875000000000000   1.0000000
B2   B   0.611106306639616   0.222227026693720   0.875000000000000   1.0000000
B2   B   0.944448156606198   0.222225021717601   0.875000000000000   1.0000000
B2   B   0.277669379130380   0.722405823996222   0.375000000000000   1.0000000
B2   B   0.110333376023124   0.221833354678226   0.375000000000000   1.0000000
B2   B   0.445123085310786   0.220166641898060   0.375000000000000   1.0000000
B2   B   0.611499978655109   0.722999957310212   0.375000000000000   1.0000000
B2   B   0.944736444865842   0.722405823996222   0.375000000000000   1.0000000
B2   B   0.777881144205949   0.222060281541858   0.375000000000000   1.0000000
B2   B   0.111112184557837   0.888890838750794   0.875000000000000   1.0000000
B2   B   0.444443357302602   0.888888345317965   0.875000000000000   1.0000000
B2   B   0.277788296464457   0.388890712083833   0.875000000000000   1.0000000
B2   B   0.611102415619382   0.388890712083833   0.875000000000000   1.0000000
B2   B   0.777776865111403   0.888885176727131   0.875000000000000   1.0000000
B2   B   0.944444988015364   0.388889976030727   0.875000000000000   1.0000000
B2   B   0.110148732853129   0.388804225095069   0.375000000000000   1.0000000
B2   B   0.277669379130380   0.888596888467486   0.375000000000000   1.0000000
B2   B   0.611273051791478   0.889154195997420   0.375000000000000   1.0000000
B2   B   0.944398867374171   0.888934465959158   0.375000000000000   1.0000000
B2   B   0.778655492241946   0.388804225095069   0.375000000000000   1.0000000
B2   B   0.277780819941656   0.555552513391680   0.875000000000000   1.0000000
B2   B   0.111116658329625   0.055559588915818   0.875000000000000   1.0000000
B2   B   0.611102415619382   0.555545036868878   0.875000000000000   1.0000000
B2   B   0.444442930586193   0.055559588915818   0.875000000000000   1.0000000
B2   B   0.944442494582535   0.555554679140371   0.875000000000000   1.0000000
B2   B   0.110927509337114   0.555663954202956   0.375000000000000   1.0000000
B2   B   0.777777777777779   0.055555555555557   0.875000000000000   1.0000000
B2   B   0.277301438845681   0.054602877691362   0.375000000000000   1.0000000
B2   B   0.445123085310786   0.558289776746061   0.375000000000000   1.0000000
B2   B   0.778730455641974   0.556031894487655   0.375000000000000   1.0000000
B2   B   0.611273051791478   0.055452189127386   0.375000000000000   1.0000000
B2   B   0.444442621249496   0.555545036868878   0.875000000000000   1.0000000
B2   B   0.944179137335909   0.055452189127386   0.375000000000000   1.0000000
B2   B   0.277778654192964   0.722221148775499   0.875000000000000   1.0000000
B2   B   0.111120720054111   0.222227026693720   0.875000000000000   1.0000000
B2   B   0.444442621249496   0.222230917713953   0.875000000000000   1.0000000
B2   B   0.611106306639616   0.722212613279225   0.875000000000000   1.0000000
B2   B   0.944442494582535   0.722221148775499   0.875000000000000   1.0000000
B2   B   0.777776865111403   0.222225021717601   0.875000000000000   1.0000000
B2   B   0.111111111111114   0.722222222222221   0.375000000000000   1.0000000
B2   B   0.444529108238260   0.723184600480206   0.375000000000000   1.0000000
B2   B   0.275043556587274   0.220166641898060   0.375000000000000   1.0000000
B2   B   0.778655492241946   0.723184600480206   0.375000000000000   1.0000000
B2   B   0.611499978655109   0.221833354678226   0.375000000000000   1.0000000
B2   B   0.944179137335909   0.222060281541858   0.375000000000000   1.0000000
B2   B   0.111116658329625   0.388890402747136   0.875000000000000   1.0000000
B2   B   0.277778654192964   0.888890838750794   0.875000000000000   1.0000000
B2   B   0.611108311615735   0.888885176727131   0.875000000000000   1.0000000
B2   B   0.444444444444443   0.388888888888886   0.875000000000000   1.0000000
B2   B   0.944444988015364   0.888888345317965   0.875000000000000   1.0000000
B2   B   0.110927509337114   0.888596888467486   0.375000000000000   1.0000000
B2   B   0.777773744417518   0.388890402747136   0.875000000000000   1.0000000
B2   B   0.444535598584987   0.888934465959158   0.375000000000000   1.0000000
B2   B   0.275043556587274   0.388210248022543   0.375000000000000   1.0000000
B2   B   0.277301438845681   0.556031894487655   0.375000000000000   1.0000000
B2   B   0.613166691435275   0.388210248022543   0.375000000000000   1.0000000
B2   B   0.777881144205949   0.889154195997420   0.375000000000000   1.0000000
B2   B   0.944398867374171   0.388797734748342   0.375000000000000   1.0000000
B2   B   0.111112184557837   0.555554679140371   0.875000000000000   1.0000000
B2   B   0.277780819941656   0.055561639883312   0.875000000000000   1.0000000
B2   B   0.777771693450024   0.555552513391680   0.875000000000000   1.0000000
B2   B   0.611108311615735   0.055556468221933   0.875000000000000   1.0000000
B2   B   0.944448156606198   0.055556468221933   0.875000000000000   1.0000000
B2   B   0.055552893612011   0.111113200272337   0.124992641668438   1.0000000
B2   B   0.555545743243127   0.611091486486255   0.125001649832669   1.0000000
B2   B   0.388904897312378   0.111147429527139   0.125004953834186   1.0000000
B2   B   0.888871907636012   0.611102620484677   0.124992632707688   1.0000000
B2   B   0.722223397848009   0.111109935485326   0.124993749437763   1.0000000
B2   B   0.055554069403404   0.777779263929932   0.625005944141471   1.0000000
B2   B   0.388893976499315   0.777775796125208   0.625006199768992   1.0000000
B2   B   0.222241846847081   0.277787590090208   0.624998350167331   1.0000000
B2   B   0.722220133060999   0.777780439721325   0.625007358331562   1.0000000
B2   B   0.555545743243127   0.277787590090208   0.624998350167331   1.0000000
B2   B   0.888887355022061   0.277774710044129   0.625005590866221   1.0000000
B2   B   0.222225194526529   0.777779263929932   0.124994055858529   1.0000000
B2   B   0.055552893612011   0.277773026673010   0.124992641668438   1.0000000
B2   B   0.388930914441019   0.277861828882045   0.125207955343763   1.0000000
B2   B   0.555560306660326   0.777780439721325   0.124992641668438   1.0000000
B2   B   0.888881819625885   0.777775796125208   0.124993800231008   1.0000000
B2   B   0.722220133060999   0.277773026673010   0.124992641668438   1.0000000
B2   B   0.055557537208128   0.944451513707443   0.625006199768992   1.0000000
B2   B   0.388893976499315   0.944451513707443   0.625006199768992   1.0000000
B2   B   0.222242532214754   0.444428436020950   0.624995046165814   1.0000000
B2   B   0.555471504451290   0.444402418892309   0.624792044656237   1.0000000
B2   B   0.722223397848009   0.944446795696018   0.625006250562237   1.0000000
B2   B   0.888881819625885   0.444439356834013   0.625006199768992   1.0000000
B2   B   0.055557537208128   0.444439356834013   0.124993800231008   1.0000000
B2   B   0.222230712848658   0.944461425697316   0.124992632707688   1.0000000
B2   B   0.555558623289208   0.944445978311267   0.124994409133779   1.0000000
B2   B   0.388930914441019   0.444402418892309   0.125207955343763   1.0000000
B2   B   0.888887355022061   0.944445978311267   0.124994409133779   1.0000000
B2   B   0.722185903806197   0.444428436020950   0.125004953834186   1.0000000
B2   B   0.222230712848658   0.611102620484677   0.625007367292312   1.0000000
B2   B   0.055552893612011   0.111113200272337   0.625007358331562   1.0000000
B2   B   0.555545743243127   0.611091486486255   0.624998350167331   1.0000000
B2   B   0.388904897312378   0.111147429527139   0.624995046165814   1.0000000
B2   B   0.888871907636012   0.611102620484677   0.625007367292312   1.0000000
B2   B   0.055554069403404   0.611108138806807   0.124994055858529   1.0000000
B2   B   0.722223397848009   0.111109935485326   0.625006250562237   1.0000000
B2   B   0.222242532214754   0.111147429527139   0.125004953834186   1.0000000
B2   B   0.388904897312378   0.611090801118582   0.125004953834186   1.0000000
B2   B   0.722185903806197   0.611090801118582   0.125004953834186   1.0000000
B2   B   0.555560306660326   0.111113200272337   0.124992641668438   1.0000000
B2   B   0.388904897312378   0.611090801118582   0.624995046165814   1.0000000
B2   B   0.888886537637310   0.111109935485326   0.124993749437763   1.0000000
B2   B   0.222225194526529   0.777779263929932   0.625005944141471   1.0000000
B2   B   0.055552893612011   0.277773026673010   0.625007358331562   1.0000000
B2   B   0.388930914441019   0.277861828882045   0.624792044656237   1.0000000
B2   B   0.555560306660326   0.777780439721325   0.625007358331562   1.0000000
B2   B   0.888881819625885   0.777775796125208   0.625006199768992   1.0000000
B2   B   0.722220133060999   0.277773026673010   0.625007358331562   1.0000000
B2   B   0.055554069403404   0.777779263929932   0.124994055858529   1.0000000
B2   B   0.388893976499315   0.777775796125208   0.124993800231008   1.0000000
B2   B   0.222241846847081   0.277787590090208   0.125001649832669   1.0000000
B2   B   0.722220133060999   0.777780439721325   0.124992641668438   1.0000000
B2   B   0.555545743243127   0.277787590090208   0.125001649832669   1.0000000
B2   B   0.888887355022061   0.277774710044129   0.124994409133779   1.0000000
B2   B   0.055557537208128   0.444439356834013   0.625006199768992   1.0000000
B2   B   0.222230712848658   0.944461425697316   0.625007367292312   1.0000000
B2   B   0.555558623289208   0.944445978311267   0.625005590866221   1.0000000
B2   B   0.388930914441019   0.444402418892309   0.624792044656237   1.0000000
B2   B   0.888887355022061   0.944445978311267   0.625005590866221   1.0000000
B2   B   0.055557537208128   0.944451513707443   0.124993800231008   1.0000000
B2   B   0.722185903806197   0.444428436020950   0.624995046165814   1.0000000
B2   B   0.388893976499315   0.944451513707443   0.124993800231008   1.0000000
B2   B   0.222242532214754   0.444428436020950   0.125004953834186   1.0000000
B2   B   0.222230712848658   0.611102620484677   0.124992632707688   1.0000000
B2   B   0.555471504451290   0.444402418892309   0.125207955343763   1.0000000
B2   B   0.722223397848009   0.944446795696018   0.124993749437763   1.0000000
B2   B   0.888881819625885   0.444439356834013   0.124993800231008   1.0000000
B2   B   0.055554069403404   0.611108138806807   0.625005944141471   1.0000000
B2   B   0.222242532214754   0.111147429527139   0.624995046165814   1.0000000
B2   B   0.722185903806197   0.611090801118582   0.624995046165814   1.0000000
B2   B   0.555560306660326   0.111113200272337   0.625007358331562   1.0000000
B2   B   0.888886537637310   0.111109935485326   0.625006250562237   1.0000000


