data_1
_audit_creation_method   'vasp2cif'
_cell_length_a    17.52789999999977
_cell_length_b    17.52789999999977
_cell_length_c    15.0
_cell_angle_alpha    90.0
_cell_angle_beta    90.0
_cell_angle_gamma    119.99999999999916

_symmetry_space_group_name_H-M    'P 1'
loop_
_atom_site_label
_atom_site_type_symbol
_atom_site_fract_x
_atom_site_fract_y
_atom_site_fract_z
_atom_site_occupancy
B2   B   0.904755200586904   0.952700407914942   0.097607308662167   1.0000000
B2   B   0.904499014584372   0.095498119099984   0.099529573702979   1.0000000
B2   B   0.904367368516016   0.238360701617755   0.103868303143323   1.0000000
B2   B   0.904246423533346   0.381146532302484   0.107795951273655   1.0000000
B2   B   0.903937054990932   0.523794301793687   0.109605767281131   1.0000000
B2   B   0.903942543312349   0.666393277841009   0.106678703096384   1.0000000
B2   B   0.904353962119365   0.809440838986998   0.100781251194867   1.0000000
B2   B   0.047552350693172   0.952454337909799   0.098622044730089   1.0000000
B2   B   0.047300195766148   0.095242183600667   0.097612970538525   1.0000000
B2   B   0.047205672691118   0.238216905526930   0.100913889675285   1.0000000
B2   B   0.047226203695101   0.381031345414309   0.106035015294990   1.0000000
B2   B   0.047425730880282   0.523734686532475   0.108249379520227   1.0000000
B2   B   0.047481033518672   0.666482775793752   0.106942593744122   1.0000000
B2   B   0.047440735038508   0.809394375871906   0.102729732688993   1.0000000
B2   B   0.190613730718907   0.952567815742813   0.102819227261697   1.0000000
B2   B   0.190569852961017   0.095651852956031   0.100862214140621   1.0000000
B2   B   0.189640214188049   0.237744727476304   0.101392520438419   1.0000000
B2   B   0.189940082197614   0.380794613101381   0.108751028257241   1.0000000
B2   B   0.190766849730702   0.523406549094775   0.113225727327582   1.0000000
B2   B   0.190947585728851   0.666290206557771   0.111424259471019   1.0000000
B2   B   0.190637186468281   0.809367730396268   0.106827421974747   1.0000000
B2   B   0.333522200017824   0.952524779667636   0.107169616746724   1.0000000
B2   B   0.333615223777400   0.096060877431882   0.106878831554175   1.0000000
B2   B   0.333557957487800   0.239304927783297   0.108158550952451   1.0000000
B2   B   0.330532189374606   0.379506195386066   0.120026393677973   1.0000000
B2   B   0.333627825371010   0.521557229049883   0.131280050237515   1.0000000
B2   B   0.334427703918087   0.665562948066190   0.121421870916005   1.0000000
B2   B   0.333708754013721   0.809053173920979   0.111575045753923   1.0000000
B2   B   0.476265928594588   0.952571091097564   0.108576331412517   1.0000000
B2   B   0.476209753059462   0.096061615998519   0.109901939738054   1.0000000
B2   B   0.476232902728343   0.239783790228507   0.117511817461126   1.0000000
B2   B   0.476048330879385   0.383520476413422   0.128191467175507   1.0000000
B2   B   0.478431247331189   0.666360329374797   0.131341460418308   1.0000000
B2   B   0.476595324051219   0.809231847512366   0.113467883189934   1.0000000
B2   B   0.618968402107103   0.952770893651116   0.106313020999994   1.0000000
B2   B   0.618857508019313   0.095752030375275   0.108064727931329   1.0000000
B2   B   0.618778141080841   0.238764068887654   0.114778872481509   1.0000000
B2   B   0.618548681897670   0.381463003066127   0.125657646262678   1.0000000
B2   B   0.616493183727987   0.523958293317227   0.128171796076468   1.0000000
B2   B   0.620491602332708   0.669463961415486   0.120025622335811   1.0000000
B2   B   0.619206758489707   0.810059207319201   0.108890326000639   1.0000000
B2   B   0.761779978154212   0.952797962912546   0.101017634839127   1.0000000
B2   B   0.761636879074568   0.095630146816512   0.103989600798836   1.0000000
B2   B   0.761510504848513   0.238490780784557   0.108610541486247   1.0000000
B2   B   0.761238506971148   0.381226092608886   0.114636187433100   1.0000000
B2   B   0.760219700579666   0.523770419328336   0.117357986968563   1.0000000
B2   B   0.760698473276593   0.666448994364891   0.108073988412112   1.0000000
B2   B   0.762252237694923   0.810362598653456   0.101391109258116   1.0000000
N2   N   0.952360506709242   0.904929632942230   0.097943809604756   1.0000000
N2   N   0.952141305900088   0.047858850712854   0.097425627641856   1.0000000
N2   N   0.951860761010797   0.190655248445688   0.100933232319741   1.0000000
N2   N   0.951833159591600   0.333507112815042   0.105499537594282   1.0000000
N2   N   0.951948821427442   0.476331622652843   0.108065305974028   1.0000000
N2   N   0.952142371185465   0.619063009810159   0.107469388558728   1.0000000
N2   N   0.952244715106711   0.761876049074628   0.102726127324378   1.0000000
N2   N   0.095252604696492   0.904756294723141   0.100821147472738   1.0000000
N2   N   0.095076933873210   0.047643760652051   0.097983326687224   1.0000000
N2   N   0.094294823884419   0.190100204383542   0.098561708469210   1.0000000
N2   N   0.094372966874095   0.333223514965325   0.104320721119166   1.0000000
N2   N   0.095022050638184   0.476186232023286   0.108462658615948   1.0000000
N2   N   0.095350630967244   0.619016577551356   0.108615012574052   1.0000000
N2   N   0.095274936122764   0.761844069299991   0.105360609220061   1.0000000
N2   N   0.238163056402504   0.904732817832983   0.105480802847059   1.0000000
N2   N   0.238135254888521   0.047761927580965   0.102864524443791   1.0000000
N2   N   0.237702775505967   0.190453028839993   0.102501300972199   1.0000000
N2   N   0.235832611159729   0.331915221796598   0.106046562152768   1.0000000
N2   N   0.237759406210452   0.475727687494391   0.115827930260880   1.0000000
N2   N   0.238537578753913   0.618800033824687   0.115881470033478   1.0000000
N2   N   0.238270859550053   0.761732712425889   0.110178800534721   1.0000000
N2   N   0.380987641562709   0.904655953009133   0.108877350738497   1.0000000
N2   N   0.380945949155394   0.047860865265856   0.107739519199362   1.0000000
N2   N   0.380927509133040   0.190956687563396   0.110667014434887   1.0000000
N2   N   0.380068491578098   0.333498663037368   0.113545157503789   1.0000000
N2   N   0.374315634337558   0.469563051839845   0.143004776799778   1.0000000
N2   N   0.381718134252292   0.618270023010629   0.132023460229136   1.0000000
N2   N   0.381196854830687   0.761462363219991   0.116056240348118   1.0000000
N2   N   0.523815671027600   0.904977829271639   0.108791615981931   1.0000000
N2   N   0.523671419882860   0.048047804264233   0.108405268843758   1.0000000
N2   N   0.523619231399581   0.191252151907199   0.114128985832042   1.0000000
N2   N   0.523660656479315   0.334582030352090   0.126981920335420   1.0000000
N2   N   0.530432936999909   0.625668947331572   0.143004764025388   1.0000000
N2   N   0.524273557506353   0.762241538244020   0.115996136936027   1.0000000
N2   N   0.666775048196243   0.905627502182683   0.104515106559503   1.0000000
N2   N   0.666493017946889   0.048163842660885   0.105753434188426   1.0000000
N2   N   0.666376812865566   0.190910389598968   0.110127617487548   1.0000000
N2   N   0.666395389648103   0.333612602370978   0.119306351124669   1.0000000
N2   N   0.665433173022271   0.476350921692809   0.126920505435322   1.0000000
N2   N   0.666501171957082   0.619934050158352   0.113510352763281   1.0000000
N2   N   0.668082111711661   0.764166521413132   0.106081604622878   1.0000000
N2   N   0.809895659978773   0.905706814108104   0.098585462781420   1.0000000
N2   N   0.809342577976681   0.048138548878112   0.101021401501082   1.0000000
N2   N   0.809155097042436   0.190843140305090   0.105295765887432   1.0000000
N2   N   0.809087339363192   0.333622150990982   0.109970690085246   1.0000000
N2   N   0.808747282396590   0.476383695315409   0.113887556559949   1.0000000
N2   N   0.809043973944838   0.619080716280395   0.110513243211464   1.0000000
N2   N   0.809547772686824   0.762301796653244   0.102440763408587   1.0000000
Sb2   Sb   0.493880229001255   0.506124731813818   0.214067278491194   1.0000000


