data_1
_audit_creation_method   'vasp2cif'
_cell_length_a    17.52789999999977
_cell_length_b    17.52789999999977
_cell_length_c    15.0
_cell_angle_alpha    90.0
_cell_angle_beta    90.0
_cell_angle_gamma    119.99999999999916

_symmetry_space_group_name_H-M    'P 1'
loop_
_atom_site_label
_atom_site_type_symbol
_atom_site_fract_x
_atom_site_fract_y
_atom_site_fract_z
_atom_site_occupancy
B2   B   0.906408492185535   0.952979624635284   0.111040372965601   1.0000000
B2   B   0.905039245578698   0.094132334425345   0.111076621579446   1.0000000
B2   B   0.904562049440266   0.236502480701522   0.111078607838065   1.0000000
B2   B   0.904341886547904   0.379677708072076   0.111009885266549   1.0000000
B2   B   0.904518299264660   0.523310361763863   0.111028826983412   1.0000000
B2   B   0.905259110046289   0.666871332465762   0.111118056346241   1.0000000
B2   B   0.905973505414713   0.809892710669689   0.111089394419912   1.0000000
B2   B   0.049045004323476   0.953804253262352   0.110986452265419   1.0000000
B2   B   0.049892493385700   0.097021394559082   0.111007389259872   1.0000000
B2   B   0.048105721396004   0.237857128940146   0.111041982754150   1.0000000
B2   B   0.046423160729444   0.380269627091167   0.111058410512249   1.0000000
B2   B   0.045181111285441   0.523748463451369   0.111058294198145   1.0000000
B2   B   0.046397284432434   0.667313849829866   0.111040274585799   1.0000000
B2   B   0.048062303580678   0.810600064614749   0.110995452058749   1.0000000
B2   B   0.191256052714864   0.953827459767810   0.111006626127830   1.0000000
B2   B   0.192609080892217   0.097577171030457   0.111043902054266   1.0000000
B2   B   0.194246510822458   0.241898161766482   0.111026688324817   1.0000000
B2   B   0.189654078968647   0.381401743022226   0.111007584436323   1.0000000
B2   B   0.185242134315001   0.524565147553636   0.111031767010110   1.0000000
B2   B   0.187087422589366   0.667725465079395   0.111101203029210   1.0000000
B2   B   0.189852633269121   0.810695465684606   0.111029096879664   1.0000000
B2   B   0.333437375375193   0.952912721892348   0.111083563240284   1.0000000
B2   B   0.334538643525290   0.096344430622733   0.111124219807432   1.0000000
B2   B   0.336563495785276   0.241273837284982   0.111026362008847   1.0000000
B2   B   0.340166074513401   0.387023381290243   0.110975148509127   1.0000000
B2   B   0.323096925757923   0.527266475101565   0.110994285450400   1.0000000
B2   B   0.327078295434536   0.668553495283930   0.110999876516327   1.0000000
B2   B   0.331934844009873   0.810296169770086   0.111097196203125   1.0000000
B2   B   0.475757198923697   0.949594399271535   0.111042324296825   1.0000000
B2   B   0.476697827009638   0.093411339565526   0.111133654492566   1.0000000
B2   B   0.477798249599001   0.236612577581678   0.111133943173345   1.0000000
B2   B   0.482394636337941   0.381414363603080   0.110366755276243   1.0000000
B2   B   0.463656513204647   0.655364818484272   0.111230181322640   1.0000000
B2   B   0.473970117916246   0.804371209901300   0.111076916575531   1.0000000
B2   B   0.618039949338099   0.948608647672101   0.111055885691314   1.0000000
B2   B   0.618971569859605   0.092382623531492   0.111032452584809   1.0000000
B2   B   0.619857849995058   0.235798780388535   0.111086147506743   1.0000000
B2   B   0.621459039470399   0.379061252196102   0.110994052300379   1.0000000
B2   B   0.620920554072563   0.520278029903640   0.110425598229764   1.0000000
B2   B   0.625803148990289   0.667874765759417   0.111008660803672   1.0000000
B2   B   0.617562405969146   0.804404111684186   0.111138804083479   1.0000000
B2   B   0.761344699011083   0.949805878692777   0.111070815910035   1.0000000
B2   B   0.761531326115563   0.092658434586655   0.111081203410368   1.0000000
B2   B   0.761984762871864   0.235862487993126   0.111023905312544   1.0000000
B2   B   0.762750112719273   0.379312554324779   0.111052165145361   1.0000000
B2   B   0.763669943997563   0.522919326078066   0.111145789469077   1.0000000
B2   B   0.763220337869142   0.665641218104727   0.111038558857475   1.0000000
B2   B   0.764419362968501   0.809629896729469   0.111066277017442   1.0000000
N2   N   0.953669133621887   0.905372646189348   0.111014554718950   1.0000000
N2   N   0.954255653701078   0.048358747427888   0.111017012182197   1.0000000
N2   N   0.952943835813264   0.189613737690569   0.111065633072115   1.0000000
N2   N   0.951927516516618   0.331947593076162   0.111039813448944   1.0000000
N2   N   0.951052934327722   0.475098870602881   0.110981671723268   1.0000000
N2   N   0.951777527192435   0.618755111879790   0.111026758531095   1.0000000
N2   N   0.952968826698857   0.762223482022541   0.111055144234921   1.0000000
N2   N   0.096154901398930   0.906044011090352   0.110953422507773   1.0000000
N2   N   0.097395113535532   0.049630920395200   0.110980554239292   1.0000000
N2   N   0.098525827557920   0.193163715847570   0.111002211124374   1.0000000
N2   N   0.095472073750519   0.333343630415868   0.111024670615848   1.0000000
N2   N   0.091970604166920   0.475572500540591   0.111057599271086   1.0000000
N2   N   0.092837911343146   0.619074363519577   0.111067449117755   1.0000000
N2   N   0.094881004926093   0.762624411212022   0.110989723898796   1.0000000
N2   N   0.238333923573804   0.905839420603127   0.111012091506896   1.0000000
N2   N   0.239492277708141   0.049471349357661   0.111043165320481   1.0000000
N2   N   0.241458916966839   0.194222837833824   0.111054669299041   1.0000000
N2   N   0.244103676373601   0.339814851466078   0.111002046031905   1.0000000
N2   N   0.232292404258294   0.476256037868134   0.110945258874447   1.0000000
N2   N   0.233283113625457   0.619360210734624   0.111046874917997   1.0000000
N2   N   0.236816778636765   0.762648489541324   0.111081346183110   1.0000000
N2   N   0.380635053605232   0.904638665730433   0.111068124628464   1.0000000
N2   N   0.381561135296133   0.047973776165972   0.111106737589615   1.0000000
N2   N   0.382679783393932   0.192154234620351   0.111113831570210   1.0000000
N2   N   0.386390595566378   0.339165038733414   0.110770015851898   1.0000000
N2   N   0.382364466810126   0.491020218230396   0.111174556723909   1.0000000
N2   N   0.371846540341487   0.619618731879061   0.110941776115108   1.0000000
N2   N   0.378933762016766   0.761859548733071   0.111049356053008   1.0000000
N2   N   0.522539061431280   0.899872173311156   0.111013770308074   1.0000000
N2   N   0.523736131317713   0.044859774129140   0.111045903545674   1.0000000
N2   N   0.524637091754717   0.188590048517660   0.111150245831085   1.0000000
N2   N   0.526269987200583   0.331515573171209   0.110926026422379   1.0000000
N2   N   0.520008565592235   0.751103066696111   0.111172223067010   1.0000000
N2   N   0.664789341729652   0.899852957801779   0.111059084849959   1.0000000
N2   N   0.666005003513233   0.044019583443821   0.111035352993436   1.0000000
N2   N   0.666829841110017   0.187747940492519   0.111008368672060   1.0000000
N2   N   0.667848840845581   0.331109596474319   0.111067146817749   1.0000000
N2   N   0.668987844808418   0.474376591558937   0.110994300894714   1.0000000
N2   N   0.666831306296724   0.616144321759720   0.110756558010085   1.0000000
N2   N   0.668647351910338   0.760630230038266   0.111098857771137   1.0000000
N2   N   0.810782635653885   0.904278307243861   0.111028648347512   1.0000000
N2   N   0.809262063605360   0.045239036307382   0.111076792752498   1.0000000
N2   N   0.809402117386112   0.188113180912632   0.111053011337907   1.0000000
N2   N   0.809599036918896   0.331301395788098   0.110992354833834   1.0000000
N2   N   0.809971261555948   0.474781646308310   0.111089124896943   1.0000000
N2   N   0.810249786471270   0.618248268836243   0.111148604980051   1.0000000
N2   N   0.810450960572632   0.761047247639432   0.111088369189538   1.0000000
O2   O   0.464752598980898   0.562081670112812   0.111647395160603   1.0000000
O2   O   0.530864403914935   0.470906636548542   0.109424311552257   1.0000000


