data_1
_audit_creation_method   'vasp2cif'
_cell_length_a    17.52789999999977
_cell_length_b    17.52789999999977
_cell_length_c    15.0
_cell_angle_alpha    90.0
_cell_angle_beta    90.0
_cell_angle_gamma    119.99999999999916

_symmetry_space_group_name_H-M    'P 1'
loop_
_atom_site_label
_atom_site_type_symbol
_atom_site_fract_x
_atom_site_fract_y
_atom_site_fract_z
_atom_site_occupancy
In2   In   0.496575712470832   0.503425689446153   0.111752771197472   1.0000000
B2   B   0.906357698585610   0.953313539585750   0.110988813206236   1.0000000
B2   B   0.904786917442271   0.095215103753719   0.111022003624803   1.0000000
B2   B   0.904333801150485   0.237847913742150   0.111001237451395   1.0000000
B2   B   0.904686766315351   0.380735068167998   0.110956291651256   1.0000000
B2   B   0.905883300019951   0.523900347259557   0.111042673618256   1.0000000
B2   B   0.906618818554354   0.667043075601519   0.111109027511455   1.0000000
B2   B   0.907274125659438   0.810764068610724   0.111041947478604   1.0000000
B2   B   0.048225328072720   0.951776693123309   0.111036781398876   1.0000000
B2   B   0.046688481610245   0.093644322610374   0.110988813206236   1.0000000
B2   B   0.045996031287330   0.236605054625003   0.110952966045098   1.0000000
B2   B   0.046312610386347   0.380178340524910   0.110977784826449   1.0000000
B2   B   0.047513885714004   0.523581257243702   0.111017376875548   1.0000000
B2   B   0.048549468784772   0.666492549507999   0.111102782949557   1.0000000
B2   B   0.048712890786468   0.809318258990553   0.111116970226652   1.0000000
B2   B   0.190683762205459   0.951289130409529   0.111116970226652   1.0000000
B2   B   0.189237952585263   0.092727895536560   0.111041947478604   1.0000000
B2   B   0.186393069887069   0.233611558162035   0.110914882820940   1.0000000
B2   B   0.187236917388379   0.378771533716313   0.110986248989896   1.0000000
B2   B   0.188910325046055   0.522633768027370   0.111042681645454   1.0000000
B2   B   0.190792316972741   0.666138315267456   0.111080703696597   1.0000000
B2   B   0.190983023933801   0.809018997262205   0.111083581891378   1.0000000
B2   B   0.333509471688982   0.951452552411238   0.111102782949557   1.0000000
B2   B   0.332958945595452   0.093383202641654   0.111109027511455   1.0000000
B2   B   0.330212752909348   0.233440255240679   0.110992508175677   1.0000000
B2   B   0.324594630565115   0.373644151758591   0.110965467448988   1.0000000
B2   B   0.329616774574974   0.520319330984781   0.111074174024236   1.0000000
B2   B   0.333744759791723   0.666257261405259   0.111109062886703   1.0000000
B2   B   0.333863705929539   0.809209704223269   0.111080703696597   1.0000000
B2   B   0.476420763953272   0.952488135482002   0.111017376875548   1.0000000
B2   B   0.476101673937433   0.094118721176048   0.111042673618256   1.0000000
B2   B   0.475721168743136   0.235217324209319   0.111019140250364   1.0000000
B2   B   0.470349208499256   0.368631303385683   0.110986001569390   1.0000000
B2   B   0.479682690212190   0.670385246622021   0.111074174024236   1.0000000
B2   B   0.477368253169584   0.811091696149930   0.111042681645454   1.0000000
B2   B   0.619823680671093   0.953689410809663   0.110977784826449   1.0000000
B2   B   0.619266953027975   0.095315254880651   0.110956291651256   1.0000000
B2   B   0.619333842475681   0.237422178780786   0.110976094386539   1.0000000
B2   B   0.620103901269229   0.379898119926783   0.111022279317642   1.0000000
B2   B   0.631370717810352   0.529652812697758   0.110986001569390   1.0000000
B2   B   0.626357869437385   0.675407390631894   0.110965467448988   1.0000000
B2   B   0.621230487479695   0.812765103807614   0.110986248989896   1.0000000
B2   B   0.763396966571017   0.954005989908671   0.110952966045098   1.0000000
B2   B   0.762154107453859   0.095668220045520   0.111001237451395   1.0000000
B2   B   0.761993493240001   0.238008527955981   0.110993883355212   1.0000000
B2   B   0.762579842415216   0.380668178720325   0.110976094386539   1.0000000
B2   B   0.764784696986714   0.524280852453855   0.111019140250364   1.0000000
B2   B   0.766561765955330   0.669789268287631   0.110992508175677   1.0000000
B2   B   0.766390463033963   0.813608951308929   0.110914882820940   1.0000000
N2   N   0.953592058820778   0.905259455091700   0.110992272235337   1.0000000
N2   N   0.952396640975358   0.047604760942656   0.111005846325014   1.0000000
N2   N   0.951588231687317   0.190035518599270   0.110984917545966   1.0000000
N2   N   0.951687635549040   0.332907219534793   0.110951722253318   1.0000000
N2   N   0.952671626462500   0.475951274003539   0.110970538335328   1.0000000
N2   N   0.953465879341708   0.618984576664999   0.111092929669629   1.0000000
N2   N   0.953737394490196   0.762100508107428   0.111089579605545   1.0000000
N2   N   0.095800390715775   0.904201011202249   0.111084978153089   1.0000000
N2   N   0.094741946826290   0.046409343097251   0.110992272235337   1.0000000
N2   N   0.092646528428187   0.188013976828763   0.110913312766164   1.0000000
N2   N   0.092994755839415   0.331857062892082   0.110958201959534   1.0000000
N2   N   0.094352687366403   0.475520677560659   0.110989666607631   1.0000000
N2   N   0.095851391169838   0.618708208157095   0.111051738024561   1.0000000
N2   N   0.096079633146085   0.761510325268134   0.111083740501860   1.0000000
N2   N   0.238491076649901   0.903921768771945   0.111083740501860   1.0000000
N2   N   0.237900893810580   0.046264007427791   0.111089579605545   1.0000000
N2   N   0.235672073163864   0.187526285533262   0.110954997131546   1.0000000
N2   N   0.231643727361890   0.327828098160592   0.110904098588355   1.0000000
N2   N   0.234919775916145   0.474325057019014   0.111009362494649   1.0000000
N2   N   0.238552484549909   0.618321511676702   0.111061411042893   1.0000000
N2   N   0.238761939450727   0.761239462467286   0.111069270403689   1.0000000
N2   N   0.381293193760924   0.904150010748168   0.111051738024561   1.0000000
N2   N   0.381016825253030   0.046535522576283   0.111092929669629   1.0000000
N2   N   0.380391612484013   0.188566435711881   0.111037956502427   1.0000000
N2   N   0.376021579611456   0.328442435251936   0.110938420280553   1.0000000
N2   N   0.367719489953910   0.466322928278717   0.111063309903279   1.0000000
N2   N   0.382059952303487   0.617941449614489   0.111101552363742   1.0000000
N2   N   0.381679890241309   0.761448917368109   0.111061411042893   1.0000000
N2   N   0.524480724356341   0.905648714551602   0.110989666607631   1.0000000
N2   N   0.524050127913463   0.047329775455509   0.110970538335328   1.0000000
N2   N   0.523970206518248   0.189289644578020   0.110983952102052   1.0000000
N2   N   0.524584516814968   0.331238899491840   0.111010043955943   1.0000000
N2   N   0.533678473638281   0.632281911964089   0.111063309903284   1.0000000
N2   N   0.525676344897990   0.765081626001858   0.111009362494649   1.0000000
N2   N   0.668144339024912   0.907006646078543   0.110958201959534   1.0000000
N2   N   0.667094182382188   0.048313766368952   0.110951722253318   1.0000000
N2   N   0.666868294904126   0.190351082907819   0.110951460785746   1.0000000
N2   N   0.667198040899555   0.332803361017457   0.110971975074361   1.0000000
N2   N   0.668762502425153   0.475416885102032   0.111010043955943   1.0000000
N2   N   0.671558966665077   0.623979822306561   0.110938420280553   1.0000000
N2   N   0.672173303756420   0.768357674556118   0.110904098588355   1.0000000
N2   N   0.811987425089236   0.907354873489815   0.110913312766164   1.0000000
N2   N   0.809965883318709   0.048413170230676   0.110984917545966   1.0000000
N2   N   0.809449054778799   0.190552347139191   0.111003046048178   1.0000000
N2   N   0.809650319010147   0.333133107012872   0.110951460785746   1.0000000
N2   N   0.810711757339975   0.476031195398717   0.110983952102052   1.0000000
N2   N   0.811434966206116   0.619609789434015   0.111037956502427   1.0000000
N2   N   0.812475116384758   0.764329328754121   0.110954997131546   1.0000000


