data_1
_audit_creation_method   'vasp2cif'
_cell_length_a    17.52789999999977
_cell_length_b    17.52789999999977
_cell_length_c    15.0
_cell_angle_alpha    90.0
_cell_angle_beta    90.0
_cell_angle_gamma    119.99999999999916

_symmetry_space_group_name_H-M    'P 1'
loop_
_atom_site_label
_atom_site_type_symbol
_atom_site_fract_x
_atom_site_fract_y
_atom_site_fract_z
_atom_site_occupancy
B2   B   0.904836695181091   0.952432224733717   0.111011609174283   1.0000000
B2   B   0.904684408344716   0.095227375653312   0.111033820932535   1.0000000
B2   B   0.904672109052424   0.238082024165663   0.111034521895782   1.0000000
B2   B   0.904744413870872   0.380944864192603   0.111004775077959   1.0000000
B2   B   0.904951856623066   0.523897950822398   0.111007837140245   1.0000000
B2   B   0.905187850933584   0.666845872923410   0.111042427734671   1.0000000
B2   B   0.904927560406740   0.809588779054989   0.111034407812995   1.0000000
B2   B   0.047617813696008   0.952328328051220   0.111010624507917   1.0000000
B2   B   0.047290387015977   0.094938576574872   0.111011907706898   1.0000000
B2   B   0.047483362224050   0.238090029076772   0.111006811790977   1.0000000
B2   B   0.047501084131043   0.380921203386869   0.111016575607042   1.0000000
B2   B   0.047384885741186   0.523812631100935   0.111010060839569   1.0000000
B2   B   0.047733594470301   0.666716573032380   0.111021757958843   1.0000000
B2   B   0.047764581750466   0.809576526283425   0.111003624193231   1.0000000
B2   B   0.190453506855966   0.952225435814227   0.111003090077078   1.0000000
B2   B   0.190398394496965   0.095021892964701   0.111034169569355   1.0000000
B2   B   0.189647809712173   0.237436733404715   0.110998063766410   1.0000000
B2   B   0.190595267663545   0.381106696272948   0.111002649364102   1.0000000
B2   B   0.189859810600637   0.523740199226286   0.111040311333626   1.0000000
B2   B   0.190442807221318   0.666748950472512   0.111043703889449   1.0000000
B2   B   0.190514324334093   0.809545756805313   0.110999658365237   1.0000000
B2   B   0.333291610055318   0.952246100467239   0.111018833234397   1.0000000
B2   B   0.333201933277832   0.094554116144215   0.111055379127490   1.0000000
B2   B   0.333210906700763   0.236886641680134   0.111028632856352   1.0000000
B2   B   0.332086112017344   0.379306902827008   0.111057313318808   1.0000000
B2   B   0.332697409839159   0.524710105840469   0.111073473961469   1.0000000
B2   B   0.333362673255200   0.667453775884820   0.111061956920653   1.0000000
B2   B   0.333327091887195   0.809855511784440   0.111044006525499   1.0000000
B2   B   0.476175233574654   0.952444946309812   0.111014981851540   1.0000000
B2   B   0.476143190984723   0.095009661360910   0.111006774754359   1.0000000
B2   B   0.475936467475123   0.237414871899723   0.111025590839163   1.0000000
B2   B   0.474615750172228   0.378153738168638   0.111075314034073   1.0000000
B2   B   0.475756071373287   0.526488273518500   0.111117355317582   1.0000000
B2   B   0.475864233486439   0.666940132667776   0.111034465531654   1.0000000
B2   B   0.476187502935569   0.809798534334099   0.111045584583390   1.0000000
B2   B   0.619018479599862   0.952520747144634   0.111016319093921   1.0000000
B2   B   0.618984129770348   0.095182100910184   0.111007065368801   1.0000000
B2   B   0.619032285884571   0.237837223808146   0.111012544407189   1.0000000
B2   B   0.619366464121325   0.380467889578437   0.111013167213091   1.0000000
B2   B   0.621995692037858   0.524806111685722   0.111079026856554   1.0000000
B2   B   0.619740194073089   0.668053204998875   0.111008330257777   1.0000000
B2   B   0.619056055724097   0.809904969462144   0.111004847680107   1.0000000
B2   B   0.761918807703850   0.952519640259082   0.111002340850931   1.0000000
B2   B   0.761840904718634   0.095241022099558   0.111034957103546   1.0000000
B2   B   0.761869969984744   0.238057865734448   0.111041078435138   1.0000000
B2   B   0.762092381953349   0.380912469312483   0.111014144983750   1.0000000
B2   B   0.762747260320386   0.524083162856333   0.111023427926339   1.0000000
B2   B   0.762398866566446   0.666818332337166   0.111021276744550   1.0000000
B2   B   0.762315913304283   0.810025665972607   0.111000263790004   1.0000000
C2   C   0.381470790816379   0.475798864242502   0.111178632509861   1.0000000
N2   N   0.952302136158923   0.904609244431643   0.111005657288444   1.0000000
N2   N   0.952105700145384   0.047360477862650   0.111004188625121   1.0000000
N2   N   0.952077650936135   0.190337807413026   0.111013743458515   1.0000000
N2   N   0.952019584062400   0.333243515487034   0.111002556735282   1.0000000
N2   N   0.952022340113578   0.476148818612233   0.110985507946104   1.0000000
N2   N   0.952315994352325   0.619055654105899   0.111008430307249   1.0000000
N2   N   0.952377795810902   0.761867341659788   0.111015641119543   1.0000000
N2   N   0.095202109327354   0.904685042622805   0.110984342563962   1.0000000
N2   N   0.095088726798833   0.047356671687306   0.111003675335390   1.0000000
N2   N   0.094441135922576   0.189703520764787   0.110990262074720   1.0000000
N2   N   0.094781213788857   0.333125912500398   0.110991624216554   1.0000000
N2   N   0.094439514822655   0.476144362605652   0.111006478135446   1.0000000
N2   N   0.094994028982848   0.619096992484091   0.111011332581817   1.0000000
N2   N   0.095168143198588   0.761926201578521   0.110990507987381   1.0000000
N2   N   0.238103243244578   0.904788869360403   0.110988935388979   1.0000000
N2   N   0.238111403397552   0.047360308834152   0.111015043131512   1.0000000
N2   N   0.238078987508150   0.189963373469863   0.111011279588190   1.0000000
N2   N   0.236517438049949   0.331471815450413   0.110983377770738   1.0000000
N2   N   0.236642030632078   0.476372694502137   0.111012959673121   1.0000000
N2   N   0.237826275852425   0.619412132661251   0.111031818699686   1.0000000
N2   N   0.238068670484750   0.762137193577306   0.111009525178307   1.0000000
N2   N   0.381051812176410   0.905055310600426   0.111011065857655   1.0000000
N2   N   0.381054867097537   0.047451826018319   0.111007759343600   1.0000000
N2   N   0.381185144966562   0.189818155736747   0.111026619256444   1.0000000
N2   N   0.381613461053084   0.331983493724864   0.110993195862098   1.0000000
N2   N   0.381053975854020   0.620838842336586   0.111024200962665   1.0000000
N2   N   0.381077347159909   0.762779904548589   0.111032509703603   1.0000000
N2   N   0.523944939644531   0.905100135452244   0.111011411011063   1.0000000
N2   N   0.523867347420579   0.047733169325137   0.110984453548468   1.0000000
N2   N   0.523916293570841   0.190532757718787   0.111005257717731   1.0000000
N2   N   0.524199962886287   0.333758248339224   0.110999629125905   1.0000000
N2   N   0.526114017377161   0.620840564490197   0.110994768853251   1.0000000
N2   N   0.524141944180892   0.762463368476750   0.111013329385657   1.0000000
N2   N   0.666784976328920   0.905033371202895   0.110988730708552   1.0000000
N2   N   0.666622045920083   0.047731648403569   0.111003958380309   1.0000000
N2   N   0.666609760089500   0.190512023986720   0.111009881771917   1.0000000
N2   N   0.666642966289953   0.333338547886570   0.110996688896161   1.0000000
N2   N   0.666674432975633   0.476022782729794   0.111003373990559   1.0000000
N2   N   0.666411089902796   0.618466959148707   0.110996472706670   1.0000000
N2   N   0.667403710997549   0.762624933093841   0.110990061446660   1.0000000
N2   N   0.809648744451574   0.904895132660225   0.110985878446235   1.0000000
N2   N   0.809404680821257   0.047595890631163   0.111011609115772   1.0000000
N2   N   0.809315506491352   0.190473192404397   0.111020235757182   1.0000000
N2   N   0.809348659059033   0.333322255983452   0.111009356374282   1.0000000
N2   N   0.809450598623407   0.476173119817400   0.111005221491766   1.0000000
N2   N   0.809534489674475   0.618958918621615   0.111015735451066   1.0000000
N2   N   0.809468820033099   0.761718941321071   0.111008179904315   1.0000000
O2   O   0.526461239715466   0.475971212659007   0.111254032308149   1.0000000


