data_1
_audit_creation_method   'vasp2cif'
_cell_length_a    14.93631414619966
_cell_length_b    14.936314146199727
_cell_length_c    13.341276283792837
_cell_angle_alpha    90.0
_cell_angle_beta    90.0
_cell_angle_gamma    119.99999999999984

_symmetry_space_group_name_H-M    'P 1'
loop_
_atom_site_label
_atom_site_type_symbol
_atom_site_fract_x
_atom_site_fract_y
_atom_site_fract_z
_atom_site_occupancy
O2   O   0.436879538536686   0.385106435935007   0.375000000000000   1.0000000
N2   N   0.111079747578412   0.055554302296911   0.125027450294039   1.0000000
N2   N   0.611130420092408   0.555526434098148   0.124804771730711   1.0000000
N2   N   0.444429648236935   0.055572728540360   0.125013030886294   1.0000000
N2   N   0.944465239693218   0.555561118182848   0.125033287387603   1.0000000
N2   N   0.777719474771718   0.055526404052527   0.125044473704384   1.0000000
N2   N   0.111120478984998   0.722226906159164   0.624986017627432   1.0000000
N2   N   0.444429648236935   0.722190253029911   0.624986969113706   1.0000000
N2   N   0.277733031334794   0.222224337176758   0.624860323991795   1.0000000
N2   N   0.777785518819342   0.722214297096926   0.625002689430273   1.0000000
N2   N   0.611090332484008   0.222251745793914   0.624926174550387   1.0000000
N2   N   0.944386848861684   0.222193886313256   0.624991346237790   1.0000000
N2   N   0.277775366453526   0.722210572913896   0.124997546691689   1.0000000
N2   N   0.111035975332735   0.222184654333032   0.124977411885264   1.0000000
N2   N   0.444454161628667   0.222260049701540   0.125081499881406   1.0000000
N2   N   0.611090332484008   0.722171920023423   0.125073825449612   1.0000000
N2   N   0.944465239693218   0.722237454843706   0.125033287387603   1.0000000
N2   N   0.777740377744819   0.222218271797136   0.125051638712874   1.0000000
N2   N   0.111113742669360   0.888904706766521   0.624987300328016   1.0000000
N2   N   0.444424564748295   0.888878949040812   0.624995699563355   1.0000000
N2   N   0.277733031334794   0.388842027491364   0.624860323991795   1.0000000
N2   N   0.611130420092408   0.388937319327589   0.625195228269289   1.0000000
N2   N   0.777740377744819   0.888855439281013   0.624948361287126   1.0000000
N2   N   0.944434417044967   0.388878574646683   0.624984381174136   1.0000000
N2   N   0.111079747578412   0.388858778614830   0.125027450294039   1.0000000
N2   N   0.277775366453526   0.888898126872957   0.124997546691689   1.0000000
N2   N   0.611070034729044   0.888854264714978   0.125040992679844   1.0000000
N2   N   0.444419125893674   0.388876229613501   0.124940547561619   1.0000000
N2   N   0.944434417044967   0.888889175731612   0.125015618825864   1.0000000
N2   N   0.777785518819342   0.388904555055744   0.124997310569727   1.0000000
N2   N   0.277771785273512   0.555525007857419   0.624978019390796   1.0000000
N2   N   0.111079747578412   0.055554302296911   0.624972549705961   1.0000000
N2   N   0.611130420092408   0.555526434098148   0.625195228269289   1.0000000
N2   N   0.444429648236935   0.055572728540360   0.624986969113706   1.0000000
N2   N   0.944465239693218   0.555561118182848   0.624966712612398   1.0000000
N2   N   0.111113742669360   0.555542369236167   0.125012699671984   1.0000000
N2   N   0.777719474771718   0.055526404052527   0.624955526295616   1.0000000
N2   N   0.277771785273512   0.055580110749428   0.125021980609204   1.0000000
N2   N   0.444454161628667   0.555527445260464   0.125081499881406   1.0000000
N2   N   0.777815637110440   0.555574485221888   0.125036674847510   1.0000000
N2   N   0.611070034729044   0.055549103347395   0.125040992679844   1.0000000
N2   N   0.444454161628667   0.555527445260464   0.624918500118594   1.0000000
N2   N   0.944386848861684   0.055526295881763   0.125008653762210   1.0000000
N2   N   0.277775366453526   0.722210572913896   0.625002453308312   1.0000000
N2   N   0.111035975332735   0.222184654333032   0.625022588114736   1.0000000
N2   N   0.444454161628667   0.222260049701540   0.624918500118594   1.0000000
N2   N   0.611090332484008   0.722171920023423   0.624926174550387   1.0000000
N2   N   0.944465239693218   0.722237454843706   0.624966712612398   1.0000000
N2   N   0.777740377744819   0.222218271797136   0.624948361287126   1.0000000
N2   N   0.111120478984998   0.722226906159164   0.125013982372569   1.0000000
N2   N   0.444429648236935   0.722190253029911   0.125013030886294   1.0000000
N2   N   0.277733031334794   0.222224337176758   0.125139676008206   1.0000000
N2   N   0.777785518819342   0.722214297096926   0.124997310569727   1.0000000
N2   N   0.611090332484008   0.222251745793914   0.125073825449612   1.0000000
N2   N   0.944386848861684   0.222193886313256   0.125008653762210   1.0000000
N2   N   0.111079747578412   0.388858778614830   0.624972549705961   1.0000000
N2   N   0.277775366453526   0.888898126872957   0.625002453308312   1.0000000
N2   N   0.611070034729044   0.888854264714978   0.624959007320156   1.0000000
N2   N   0.444419125893674   0.388876229613501   0.625059452438382   1.0000000
N2   N   0.944434417044967   0.888889175731612   0.624984381174136   1.0000000
N2   N   0.111113742669360   0.888904706766521   0.125012699671984   1.0000000
N2   N   0.777785518819342   0.388904555055744   0.625002689430273   1.0000000
N2   N   0.444424564748295   0.888878949040812   0.125004300436645   1.0000000
N2   N   0.277733031334794   0.388842027491364   0.125139676008206   1.0000000
N2   N   0.277771785273512   0.555525007857419   0.125021980609204   1.0000000
N2   N   0.611130420092408   0.388937319327589   0.124804771730711   1.0000000
N2   N   0.777740377744819   0.888855439281013   0.125051638712874   1.0000000
N2   N   0.944434417044967   0.388878574646683   0.125015618825864   1.0000000
N2   N   0.111113742669360   0.555542369236167   0.624987300328016   1.0000000
N2   N   0.277771785273512   0.055580110749428   0.624978019390796   1.0000000
N2   N   0.777815637110440   0.555574485221888   0.624963325152491   1.0000000
N2   N   0.611070034729044   0.055549103347395   0.624959007320156   1.0000000
N2   N   0.944386848861684   0.055526295881763   0.624991346237790   1.0000000
N2   N   0.052045838646274   0.108940213166367   0.375000000000000   1.0000000
N2   N   0.556829619432872   0.597662539999758   0.375000000000000   1.0000000
N2   N   0.390303218595449   0.116999255269823   0.375000000000000   1.0000000
N2   N   0.894672889785419   0.614003111559382   0.375000000000000   1.0000000
N2   N   0.720611002154621   0.111539844150941   0.375000000000000   1.0000000
N2   N   0.055556562444103   0.777778852172607   0.875000000000000   1.0000000
N2   N   0.388890958975085   0.777779496389172   0.875000000000000   1.0000000
N2   N   0.222221433868953   0.277777383601144   0.875000000000000   1.0000000
N2   N   0.722222958185100   0.777777646970318   0.875000000000000   1.0000000
N2   N   0.555555491292473   0.277777752930996   0.875000000000000   1.0000000
N2   N   0.888891681069536   0.277780499305383   0.875000000000000   1.0000000
N2   N   0.225224195844724   0.779278764589030   0.375000000000000   1.0000000
N2   N   0.052045838646274   0.276438958813243   0.375000000000000   1.0000000
N2   N   0.380984916932117   0.276764497010195   0.375000000000000   1.0000000
N2   N   0.555908863788906   0.772455021280297   0.375000000000000   1.0000000
N2   N   0.890707570431959   0.778080168772389   0.375000000000000   1.0000000
N2   N   0.721396558309177   0.280552459687119   0.375000000000000   1.0000000
N2   N   0.055556067665321   0.944444124611008   0.875000000000000   1.0000000
N2   N   0.388890958975085   0.944444795919249   0.875000000000000   1.0000000
N2   N   0.222221470283075   0.444444943271843   0.875000000000000   1.0000000
N2   N   0.555554541215194   0.444443937274261   0.875000000000000   1.0000000
N2   N   0.722221761511078   0.944443988079421   0.875000000000000   1.0000000
N2   N   0.888892801916331   0.444446336770223   0.875000000000000   1.0000000
N2   N   0.055563637051154   0.444527816197472   0.375000000000000   1.0000000
N2   N   0.224449852047816   0.946806571320460   0.375000000000000   1.0000000
N2   N   0.555794960703858   0.944564147018594   0.375000000000000   1.0000000
N2   N   0.380984916932117   0.437553753255257   0.375000000000000   1.0000000
N2   N   0.886908303867963   0.942426649584843   0.375000000000000   1.0000000
N2   N   0.726918198783939   0.448985148334388   0.375000000000000   1.0000000
N2   N   0.222222098632199   0.611111370904704   0.875000000000000   1.0000000
N2   N   0.055555863436310   0.111109793645964   0.875000000000000   1.0000000
N2   N   0.555555491292473   0.611111071694813   0.875000000000000   1.0000000
N2   N   0.388890114524367   0.111111422957845   0.875000000000000   1.0000000
N2   N   0.888891915440028   0.611112624386686   0.875000000000000   1.0000000
N2   N   0.059028572904892   0.612513407449718   0.375000000000000   1.0000000
N2   N   0.722221761511078   0.111111106764993   0.875000000000000   1.0000000
N2   N   0.220268173288211   0.110660512650650   0.375000000000000   1.0000000
N2   N   0.390303218595449   0.606637296658970   0.375000000000000   1.0000000
N2   N   0.726918198783939   0.611266383782889   0.375000000000000   1.0000000
N2   N   0.555908863788906   0.116787175841945   0.375000000000000   1.0000000
N2   N   0.388890114524367   0.611112024899865   0.875000000000000   1.0000000
N2   N   0.886036246975294   0.109684790154319   0.375000000000000   1.0000000
N2   N   0.222223013798085   0.777778173565709   0.875000000000000   1.0000000
N2   N   0.055555863436310   0.277779403123682   0.875000000000000   1.0000000
N2   N   0.388888752930676   0.277777200665240   0.875000000000000   1.0000000
N2   N   0.555555179502304   0.777778369969746   0.875000000000000   1.0000000
N2   N   0.888892801916331   0.777779798479444   0.875000000000000   1.0000000
N2   N   0.722222958185100   0.277778644548117   0.875000000000000   1.0000000
N2   N   0.059028572904892   0.779848498788510   0.375000000000000   1.0000000
N2   N   0.390867707139147   0.776989536268207   0.375000000000000   1.0000000
N2   N   0.215747586795018   0.274540460064176   0.375000000000000   1.0000000
N2   N   0.721396558309177   0.774177431955394   0.375000000000000   1.0000000
N2   N   0.556829619432872   0.292500412766449   0.375000000000000   1.0000000
N2   N   0.886908303867963   0.277814987616456   0.375000000000000   1.0000000
N2   N   0.055556067665321   0.444445276387642   0.875000000000000   1.0000000
N2   N   0.222222098632199   0.944444061060831   0.875000000000000   1.0000000
N2   N   0.555554687918665   0.944444010625997   0.875000000000000   1.0000000
N2   N   0.388888752930676   0.444444885598772   0.875000000000000   1.0000000
N2   N   0.888891681069536   0.944444515097489   0.875000000000000   1.0000000
N2   N   0.055563637051154   0.944369154187011   0.375000000000000   1.0000000
N2   N   0.722223835199974   0.444445692660957   0.875000000000000   1.0000000
N2   N   0.390867707139147   0.947211504204276   0.375000000000000   1.0000000
N2   N   0.220268173288211   0.442940993970897   0.375000000000000   1.0000000
N2   N   0.224449852047816   0.610976614060690   0.375000000000000   1.0000000
N2   N   0.720611002154621   0.942404491337017   0.375000000000000   1.0000000
N2   N   0.890707570431959   0.445960734992905   0.375000000000000   1.0000000
N2   N   0.055556562444103   0.611111043604830   0.875000000000000   1.0000000
N2   N   0.222221470283075   0.111109860344568   0.875000000000000   1.0000000
N2   N   0.722223835199974   0.611111475872352   0.875000000000000   1.0000000
N2   N   0.555555179502304   0.111110142865893   0.875000000000000   1.0000000
N2   N   0.888890663489388   0.111111998411365   0.875000000000000   1.0000000
B2   B   0.109233786909801   0.054860942271749   0.375000000000000   1.0000000
B2   B   0.617599070604544   0.541615527422927   0.375000000000000   1.0000000
B2   B   0.445089697344571   0.059740287020325   0.375000000000000   1.0000000
B2   B   0.948339878992076   0.557102769402862   0.375000000000000   1.0000000
B2   B   0.775112647996868   0.054222990665102   0.375000000000000   1.0000000
B2   B   0.111112614101915   0.722222973717622   0.875000000000000   1.0000000
B2   B   0.444443994784671   0.722217865529374   0.875000000000000   1.0000000
B2   B   0.277790491842134   0.222230340372811   0.875000000000000   1.0000000
B2   B   0.777773217412901   0.722212727092838   0.875000000000000   1.0000000
B2   B   0.611105120137812   0.222228184096648   0.875000000000000   1.0000000
B2   B   0.944447738256211   0.222225841179014   0.875000000000000   1.0000000
B2   B   0.279948679723145   0.722407796571064   0.375000000000000   1.0000000
B2   B   0.105815434994377   0.219574384163852   0.375000000000000   1.0000000
B2   B   0.445245460261534   0.230228450077987   0.375000000000000   1.0000000
B2   B   0.610290553531680   0.713214340427572   0.375000000000000   1.0000000
B2   B   0.948339878992076   0.724570442922551   0.375000000000000   1.0000000
B2   B   0.775699643694287   0.223005311585695   0.375000000000000   1.0000000
B2   B   0.111113790398225   0.888889992201353   0.875000000000000   1.0000000
B2   B   0.444443692062351   0.888888512697839   0.875000000000000   1.0000000
B2   B   0.277790491842134   0.388893484802652   0.875000000000000   1.0000000
B2   B   0.611104806705619   0.388892103068529   0.875000000000000   1.0000000
B2   B   0.777775606758922   0.888882691665443   0.875000000000000   1.0000000
B2   B   0.944445766494034   0.388893097858218   0.875000000000000   1.0000000
B2   B   0.109233786909801   0.387706177971381   0.375000000000000   1.0000000
B2   B   0.279948679723145   0.890874216485409   0.375000000000000   1.0000000
B2   B   0.609834469491236   0.885687597017612   0.375000000000000   1.0000000
B2   B   0.944469502239849   0.888632805469101   0.375000000000000   1.0000000
B2   B   0.779605232243351   0.391297085349181   0.375000000000000   1.0000000
B2   B   0.277783782670453   0.555556470381412   0.875000000000000   1.0000000
B2   B   0.111116865040323   0.055557601884568   0.875000000000000   1.0000000
B2   B   0.611104806705619   0.555546036970419   0.875000000000000   1.0000000
B2   B   0.444443994784671   0.055559462588632   0.875000000000000   1.0000000
B2   B   0.944443489044142   0.555556263918816   0.875000000000000   1.0000000
B2   B   0.113301070566204   0.555881017208323   0.375000000000000   1.0000000
B2   B   0.777776374442434   0.055554853887885   0.875000000000000   1.0000000
B2   B   0.278858673985016   0.058238094021841   0.375000000000000   1.0000000
B2   B   0.445245460261534   0.548350343516883   0.375000000000000   1.0000000
B2   B   0.785190543455109   0.559261938394223   0.375000000000000   1.0000000
B2   B   0.609834469491236   0.057480205806954   0.375000000000000   1.0000000
B2   B   0.444446856902534   0.555548523781401   0.875000000000000   1.0000000
B2   B   0.941210734171154   0.053481128917052   0.375000000000000   1.0000000
B2   B   0.277780547517600   0.722222720142964   0.875000000000000   1.0000000
B2   B   0.111119636501449   0.222226484917389   0.875000000000000   1.0000000
B2   B   0.444446856902534   0.222231666454469   0.875000000000000   1.0000000
B2   B   0.611105120137812   0.722210269374495   0.875000000000000   1.0000000
B2   B   0.944443489044142   0.722220558458661   0.875000000000000   1.0000000
B2   B   0.777775606758922   0.222226248426807   0.875000000000000   1.0000000
B2   B   0.114311440397044   0.723822386865186   0.375000000000000   1.0000000
B2   B   0.445089697344571   0.718682743657583   0.375000000000000   1.0000000
B2   B   0.271774577581260   0.220794923304863   0.375000000000000   1.0000000
B2   B   0.779605232243351   0.721641480227500   0.375000000000000   1.0000000
B2   B   0.610290553531680   0.230409546437435   0.375000000000000   1.0000000
B2   B   0.941210734171154   0.221062938587437   0.375000000000000   1.0000000
B2   B   0.111116865040323   0.388892596489083   0.875000000000000   1.0000000
B2   B   0.277780547517600   0.888891160707966   0.875000000000000   1.0000000
B2   B   0.611106326657838   0.888883819854386   0.875000000000000   1.0000000
B2   B   0.444448811181075   0.388891072257202   0.875000000000000   1.0000000
B2   B   0.944445766494034   0.888886001969146   0.875000000000000   1.0000000
B2   B   0.113301070566204   0.890753386691208   0.375000000000000   1.0000000
B2   B   0.777773217412901   0.388893823653392   0.875000000000000   1.0000000
B2   B   0.445142204074330   0.889237768703829   0.375000000000000   1.0000000
B2   B   0.271774577581260   0.384312987609726   0.375000000000000   1.0000000
B2   B   0.278858673985016   0.553953913296511   0.375000000000000   1.0000000
B2   B   0.617599070604544   0.409316876514946   0.375000000000000   1.0000000
B2   B   0.775699643694287   0.886027665441920   0.375000000000000   1.0000000
B2   B   0.944469502239849   0.389170030104076   0.375000000000000   1.0000000
B2   B   0.111113790398225   0.555557131530199   0.875000000000000   1.0000000
B2   B   0.277783782670453   0.055560645622378   0.875000000000000   1.0000000
B2   B   0.777770385979141   0.555551859656238   0.875000000000000   1.0000000
B2   B   0.611106326657838   0.055555840136781   0.875000000000000   1.0000000
B2   B   0.944447738256211   0.055555230410532   0.875000000000000   1.0000000
B2   B   0.055504708255652   0.111089519722789   0.124977664063066   1.0000000
B2   B   0.555549016604110   0.611031974345866   0.125030363414066   1.0000000
B2   B   0.388903674445675   0.111174143364470   0.125037357024633   1.0000000
B2   B   0.888902184321907   0.611117758827625   0.124999700206619   1.0000000
B2   B   0.722173663123128   0.111100460540536   0.125017791075935   1.0000000
B2   B   0.055571336676328   0.777791327453222   0.625000426254923   1.0000000
B2   B   0.388888133711223   0.777760655785606   0.624997361659916   1.0000000
B2   B   0.222185938704959   0.277759636019147   0.624986454738773   1.0000000
B2   B   0.722194425930741   0.777727338371763   0.624990090587212   1.0000000
B2   B   0.555549016604110   0.277850375591580   0.624969636585935   1.0000000
B2   B   0.888852797576600   0.277769489394937   0.625000808927100   1.0000000
B2   B   0.222236793465783   0.777785063399559   0.124997971787019   1.0000000
B2   B   0.055504708255652   0.277748521866199   0.124977664063066   1.0000000
B2   B   0.388915566542282   0.277862633866034   0.125215067482201   1.0000000
B2   B   0.555534414306865   0.777725981532681   0.125036278654120   1.0000000
B2   B   0.888878864989845   0.777767889455022   0.124998595311715   1.0000000
B2   B   0.722194425930741   0.277800420892315   0.125009909412788   1.0000000
B2   B   0.055545391637259   0.944447171191767   0.625002721805578   1.0000000
B2   B   0.388888133711223   0.944460811258953   0.624997361659916   1.0000000
B2   B   0.222215694177558   0.444411370706104   0.624975696433495   1.0000000
B2   B   0.555474384436701   0.444403858885015   0.624951212127860   1.0000000
B2   B   0.722173663123128   0.944406535915928   0.624982208924065   1.0000000
B2   B   0.888878864989845   0.444444308868157   0.625001404688286   1.0000000
B2   B   0.055545391637259   0.444431553778820   0.124997278194422   1.0000000
B2   B   0.222234159758908   0.944472430113273   0.124996031708941   1.0000000
B2   B   0.555526521690288   0.944429927511809   0.125017527874119   1.0000000
B2   B   0.388915566542282   0.444386266009584   0.125215067482201   1.0000000
B2   B   0.888852797576600   0.944416641514998   0.124999191072900   1.0000000
B2   B   0.722198246570219   0.444455863383591   0.124960395103934   1.0000000
B2   B   0.222234159758908   0.611095062978970   0.625003968291059   1.0000000
B2   B   0.055504708255652   0.111089519722789   0.625022335936934   1.0000000
B2   B   0.555549016604110   0.611031974345866   0.624969636585935   1.0000000
B2   B   0.388903674445675   0.111174143364470   0.624962642975368   1.0000000
B2   B   0.888902184321907   0.611117758827625   0.625000299793382   1.0000000
B2   B   0.055571336676328   0.611113342556441   0.124999573745076   1.0000000
B2   B   0.722173663123128   0.111100460540536   0.624982208924065   1.0000000
B2   B   0.222215694177558   0.111137656804789   0.125024303566505   1.0000000
B2   B   0.388903674445675   0.611062864414548   0.125037357024633   1.0000000
B2   B   0.722198246570219   0.611075716519964   0.124960395103934   1.0000000
B2   B   0.555534414306865   0.111141766107518   0.125036278654120   1.0000000
B2   B   0.388903674445675   0.611062864414548   0.624962642975368   1.0000000
B2   B   0.888834816174283   0.111084074753813   0.124993127022916   1.0000000
B2   B   0.222236793465783   0.777785063399559   0.625002028212982   1.0000000
B2   B   0.055504708255652   0.277748521866199   0.625022335936934   1.0000000
B2   B   0.388915566542282   0.277862633866034   0.624784932517799   1.0000000
B2   B   0.555534414306865   0.777725981532681   0.624963721345880   1.0000000
B2   B   0.888878864989845   0.777767889455022   0.625001404688286   1.0000000
B2   B   0.722194425930741   0.277800420892315   0.624990090587212   1.0000000
B2   B   0.055571336676328   0.777791327453222   0.124999573745076   1.0000000
B2   B   0.388888133711223   0.777760655785606   0.125002638340084   1.0000000
B2   B   0.222185938704959   0.277759636019147   0.125013545261227   1.0000000
B2   B   0.722194425930741   0.777727338371763   0.125009909412788   1.0000000
B2   B   0.555549016604110   0.277850375591580   0.125030363414066   1.0000000
B2   B   0.888852797576600   0.277769489394937   0.124999191072900   1.0000000
B2   B   0.055545391637259   0.444431553778820   0.625002721805578   1.0000000
B2   B   0.222234159758908   0.944472430113273   0.625003968291059   1.0000000
B2   B   0.555526521690288   0.944429927511809   0.624982472125881   1.0000000
B2   B   0.388915566542282   0.444386266009584   0.624784932517799   1.0000000
B2   B   0.888852797576600   0.944416641514998   0.625000808927100   1.0000000
B2   B   0.055545391637259   0.944447171191767   0.124997278194422   1.0000000
B2   B   0.722198246570219   0.444455863383591   0.625039604896066   1.0000000
B2   B   0.388888133711223   0.944460811258953   0.125002638340084   1.0000000
B2   B   0.222215694177558   0.444411370706104   0.125024303566505   1.0000000
B2   B   0.222234159758908   0.611095062978970   0.124996031708941   1.0000000
B2   B   0.555474384436701   0.444403858885015   0.125048787872140   1.0000000
B2   B   0.722173663123128   0.944406535915928   0.125017791075935   1.0000000
B2   B   0.888878864989845   0.444444308868157   0.124998595311715   1.0000000
B2   B   0.055571336676328   0.611113342556441   0.625000426254923   1.0000000
B2   B   0.222215694177558   0.111137656804789   0.624975696433495   1.0000000
B2   B   0.722198246570219   0.611075716519964   0.625039604896066   1.0000000
B2   B   0.555534414306865   0.111141766107518   0.624963721345880   1.0000000
B2   B   0.888834816174283   0.111084074753813   0.625006872977085   1.0000000


