data_1
_audit_creation_method   'vasp2cif'
_cell_length_a    17.52789999999977
_cell_length_b    17.52789999999977
_cell_length_c    15.0
_cell_angle_alpha    90.0
_cell_angle_beta    90.0
_cell_angle_gamma    119.99999999999916

_symmetry_space_group_name_H-M    'P 1'
loop_
_atom_site_label
_atom_site_type_symbol
_atom_site_fract_x
_atom_site_fract_y
_atom_site_fract_z
_atom_site_occupancy
B2   B   0.904905312044249   0.953686928803535   0.110878760786544   1.0000000
B2   B   0.906331082760436   0.097286904057185   0.111339640902039   1.0000000
B2   B   0.906254122930495   0.239644617886288   0.111718949495266   1.0000000
B2   B   0.905219734483644   0.381503492691138   0.111675990412718   1.0000000
B2   B   0.902702367107896   0.522939425848049   0.111904237243927   1.0000000
B2   B   0.897992319745822   0.664335378586871   0.112384985967613   1.0000000
B2   B   0.901560478477207   0.808719392733050   0.111602033792488   1.0000000
B2   B   0.046182525496108   0.951337648615244   0.111296969362384   1.0000000
B2   B   0.048299820920478   0.095709504148092   0.111995512160551   1.0000000
B2   B   0.049722458665820   0.239452694819811   0.112808195903330   1.0000000
B2   B   0.049804247659658   0.381892713763861   0.112737541013159   1.0000000
B2   B   0.048218630680712   0.523496774212133   0.112156381191069   1.0000000
B2   B   0.045076225436141   0.664897868821606   0.111609765451210   1.0000000
B2   B   0.044248814061592   0.807124440499593   0.111282070598442   1.0000000
B2   B   0.188361317420595   0.949932595560908   0.111316983705285   1.0000000
B2   B   0.190018260115237   0.094021394698990   0.111798680582384   1.0000000
B2   B   0.191895968711690   0.238058422008373   0.112972082577429   1.0000000
B2   B   0.194215444015163   0.382001830960271   0.113036857941270   1.0000000
B2   B   0.193842698216317   0.524065275499447   0.113092664017184   1.0000000
B2   B   0.191509691671885   0.665382422032573   0.112276621666703   1.0000000
B2   B   0.188705906845680   0.807270503840794   0.111492851992169   1.0000000
B2   B   0.331959799680434   0.950271436868997   0.111622843171871   1.0000000
B2   B   0.331691124180290   0.092438141192481   0.111566625654926   1.0000000
B2   B   0.333834766612103   0.235967146459288   0.109531993677013   1.0000000
B2   B   0.336506358239810   0.379698725266346   0.107958535867873   1.0000000
B2   B   0.339757747936781   0.525488622737908   0.108773643301483   1.0000000
B2   B   0.338850976529600   0.666291067570503   0.112857630707369   1.0000000
B2   B   0.333248363480877   0.808036549087953   0.111903296115014   1.0000000
B2   B   0.475809184009594   0.952304606581507   0.111191497756135   1.0000000
B2   B   0.475212907520524   0.094403014995766   0.112260398901498   1.0000000
B2   B   0.474386729396772   0.236212835701401   0.111957491231851   1.0000000
B2   B   0.490263432497400   0.670294367079170   0.113299830975068   1.0000000
B2   B   0.477334184955865   0.810446760877575   0.110557834625761   1.0000000
B2   B   0.619670954214880   0.955423557272809   0.110153620876541   1.0000000
B2   B   0.618960728686468   0.096105082551368   0.111342848375105   1.0000000
B2   B   0.618547839724509   0.237439149159617   0.112056981202928   1.0000000
B2   B   0.618698674997079   0.380931387589626   0.114601886921107   1.0000000
B2   B   0.612497368857017   0.673995067076799   0.115414722011375   1.0000000
B2   B   0.621264749332237   0.816359186441486   0.109911363616289   1.0000000
B2   B   0.763441487315957   0.955864459261465   0.110146447397030   1.0000000
B2   B   0.762956239347120   0.097423787813345   0.110884757422101   1.0000000
B2   B   0.762313763180394   0.239084298221390   0.111437426380905   1.0000000
B2   B   0.760722520633833   0.380878375990124   0.112041478748893   1.0000000
B2   B   0.755227211429646   0.521311985835215   0.115753519802411   1.0000000
B2   B   0.750928838564954   0.665594966190867   0.114785072558589   1.0000000
B2   B   0.761210838717459   0.812291509005589   0.111047098146756   1.0000000
C2   C   0.477413604970650   0.379024609908159   0.102167898515210   1.0000000
C2   C   0.472227595885150   0.510530459030580   0.075873925534714   1.0000000
C2   C   0.520276813706711   0.469029085480528   0.086479548205911   1.0000000
N2   N   0.951363331837449   0.904923815078764   0.111080629309483   1.0000000
N2   N   0.953447140674293   0.049210628756746   0.111303710371370   1.0000000
N2   N   0.954450615746518   0.192427285260409   0.111970418612448   1.0000000
N2   N   0.954249942382812   0.334598871691648   0.111953129165699   1.0000000
N2   N   0.952842195721710   0.476426440399846   0.111629192560945   1.0000000
N2   N   0.949548024716975   0.618291393553814   0.111807051710354   1.0000000
N2   N   0.949091753791722   0.760587715988149   0.111606097645434   1.0000000
N2   N   0.093235048729082   0.902959897264127   0.111165653191476   1.0000000
N2   N   0.094991296634724   0.047136808802239   0.111739679542293   1.0000000
N2   N   0.096757277092347   0.191152212000716   0.112912951916075   1.0000000
N2   N   0.098357393092811   0.334731803604189   0.113250484872197   1.0000000
N2   N   0.097853480566942   0.476930449876598   0.112920371014646   1.0000000
N2   N   0.095527746095293   0.618531620587994   0.111920919477103   1.0000000
N2   N   0.093332766267505   0.760283703670106   0.111309846521881   1.0000000
N2   N   0.236525794393207   0.902657064771164   0.111361858764897   1.0000000
N2   N   0.236573205578960   0.045399661250630   0.111422196746010   1.0000000
N2   N   0.238700107282198   0.189732726100839   0.111865442550817   1.0000000
N2   N   0.241079923719081   0.333280293100764   0.113322261377899   1.0000000
N2   N   0.243216887617766   0.477418639715161   0.112448833935294   1.0000000
N2   N   0.241914262100576   0.619054435238286   0.112897709535687   1.0000000
N2   N   0.237839437607741   0.760531571722946   0.111917907844508   1.0000000
N2   N   0.380267731929938   0.903401355126270   0.111507501369061   1.0000000
N2   N   0.379606447079794   0.045465561106809   0.111952149227051   1.0000000
N2   N   0.379378336202161   0.187339561857537   0.110890226921993   1.0000000
N2   N   0.384106601965778   0.331625873174155   0.105296023665544   1.0000000
N2   N   0.385034615632331   0.474868274120370   0.100890826661786   1.0000000
N2   N   0.390811090809386   0.620518320895990   0.112783572592309   1.0000000
N2   N   0.382239176175983   0.761442135305182   0.112142804826981   1.0000000
N2   N   0.524186288279788   0.905982133520136   0.110410362711607   1.0000000
N2   N   0.523301111522380   0.047460199606883   0.111584898885885   1.0000000
N2   N   0.522600479766448   0.189285346491938   0.112925291801299   1.0000000
N2   N   0.520011146421157   0.330818003510921   0.111169379664053   1.0000000
N2   N   0.526243898584919   0.764970525559524   0.109811254517004   1.0000000
N2   N   0.668514323354125   0.910386723953249   0.109602457292263   1.0000000
N2   N   0.667464236460806   0.049985207223525   0.110710321689710   1.0000000
N2   N   0.666743600436619   0.190498793653065   0.111617773275175   1.0000000
N2   N   0.665256654255273   0.330754166908722   0.111871980701541   1.0000000
N2   N   0.664253611842327   0.469818660114539   0.120623212523214   1.0000000
N2   N   0.659247496541976   0.631014194773403   0.117719647275992   1.0000000
N2   N   0.666969043736738   0.769799993667161   0.110846234550837   1.0000000
N2   N   0.810385381803782   0.908100169055356   0.110323875241612   1.0000000
N2   N   0.811317871828089   0.050774533761383   0.110690683770586   1.0000000
N2   N   0.810875674218474   0.192224934997705   0.111264566612091   1.0000000
N2   N   0.809916135577598   0.333732449915198   0.111494603804295   1.0000000
N2   N   0.808232580197859   0.475636859232174   0.112587950829477   1.0000000
N2   N   0.802631646472459   0.618280787442602   0.114204789222799   1.0000000
N2   N   0.807010909940001   0.763392998020349   0.112222104636488   1.0000000


