data_1
_audit_creation_method   'vasp2cif'
_cell_length_a    14.93631414619966
_cell_length_b    14.936314146199727
_cell_length_c    13.341276283792837
_cell_angle_alpha    90.0
_cell_angle_beta    90.0
_cell_angle_gamma    119.99999999999984

_symmetry_space_group_name_H-M    'P 1'
loop_
_atom_site_label
_atom_site_type_symbol
_atom_site_fract_x
_atom_site_fract_y
_atom_site_fract_z
_atom_site_occupancy
Si2   Si   0.555555555555557   0.444444444444443   0.375000000000000   1.0000000
N2   N   0.111084789566700   0.055553655518821   0.124861348932127   1.0000000
N2   N   0.611214265694037   0.555761864721213   0.121835005251405   1.0000000
N2   N   0.444460200691188   0.055576221941622   0.125182488047137   1.0000000
N2   N   0.944423778058403   0.555539799308897   0.125182488047137   1.0000000
N2   N   0.777783871509585   0.055558602421445   0.124617470228853   1.0000000
N2   N   0.111091562582900   0.722212447958110   0.624674580505027   1.0000000
N2   N   0.444460200691188   0.722217312082835   0.624817511952863   1.0000000
N2   N   0.277721499964327   0.222208770984710   0.625733966468036   1.0000000
N2   N   0.777791229015273   0.722278500035677   0.625733966468036   1.0000000
N2   N   0.611153937687090   0.222208770984710   0.625733966468036   1.0000000
N2   N   0.944441397578573   0.222216128490437   0.625382529771111   1.0000000
N2   N   0.277787552041910   0.722212447958110   0.125325419495036   1.0000000
N2   N   0.111058824911821   0.222196079122576   0.124477987421656   1.0000000
N2   N   0.444455115464445   0.222243564262230   0.124331572500130   1.0000000
N2   N   0.611153937687098   0.722278500035677   0.124266033531915   1.0000000
N2   N   0.944423778058403   0.722217312082835   0.125182488047137   1.0000000
N2   N   0.777803920877461   0.222196079122576   0.124477987421656   1.0000000
N2   N   0.111103999730314   0.888896000269663   0.624855097911529   1.0000000
N2   N   0.444458667206080   0.888896000269663   0.624855097911529   1.0000000
N2   N   0.277721499964327   0.388846062312973   0.625733966468036   1.0000000
N2   N   0.611214265694037   0.388785734306058   0.628164994748661   1.0000000
N2   N   0.777803920877461   0.888941175088164   0.625522012578353   1.0000000
N2   N   0.944446344481138   0.388864467381203   0.625138651067848   1.0000000
N2   N   0.111084789566700   0.388864467381203   0.124861348932127   1.0000000
N2   N   0.277787552041910   0.888908437417149   0.125325419495035   1.0000000
N2   N   0.611135532618755   0.888915210433350   0.124861348932127   1.0000000
N2   N   0.444238135278705   0.388785734306058   0.121835005251405   1.0000000
N2   N   0.944446344481138   0.888915210433350   0.124861348932127   1.0000000
N2   N   0.777791229015273   0.388846062312973   0.124266033531915   1.0000000
N2   N   0.277782687917104   0.555539799308897   0.624817511952863   1.0000000
N2   N   0.111084789566700   0.055553655518821   0.625138651067848   1.0000000
N2   N   0.611214265694037   0.555761864721213   0.628164994748661   1.0000000
N2   N   0.444460200691188   0.055576221941621   0.624817511952863   1.0000000
N2   N   0.944423778058403   0.555539799308897   0.624817511952863   1.0000000
N2   N   0.111103999730314   0.555541332793940   0.125144902088469   1.0000000
N2   N   0.777783871509585   0.055558602421445   0.625382529771111   1.0000000
N2   N   0.277782687917104   0.055576221941622   0.125182488047137   1.0000000
N2   N   0.444455115464445   0.555544884535564   0.124331572500130   1.0000000
N2   N   0.777756435737773   0.555544884535564   0.124331572500130   1.0000000
N2   N   0.611135532618755   0.055553655518821   0.124861348932127   1.0000000
N2   N   0.444455115464445   0.555544884535564   0.625668427499821   1.0000000
N2   N   0.944441397578573   0.055558602421445   0.124617470228853   1.0000000
N2   N   0.277787552041910   0.722212447958110   0.624674580505027   1.0000000
N2   N   0.111058824911821   0.222196079122576   0.625522012578353   1.0000000
N2   N   0.444455115464445   0.222243564262230   0.625668427499821   1.0000000
N2   N   0.611153937687090   0.722278500035677   0.625733966468036   1.0000000
N2   N   0.944423778058403   0.722217312082835   0.624817511952863   1.0000000
N2   N   0.777803920877461   0.222196079122576   0.625522012578353   1.0000000
N2   N   0.111091562582900   0.722212447958110   0.125325419495035   1.0000000
N2   N   0.444460200691188   0.722217312082835   0.125182488047137   1.0000000
N2   N   0.277721499964327   0.222208770984710   0.124266033531915   1.0000000
N2   N   0.777791229015273   0.722278500035677   0.124266033531915   1.0000000
N2   N   0.611153937687090   0.222208770984710   0.124266033531915   1.0000000
N2   N   0.944441397578573   0.222216128490437   0.124617470228853   1.0000000
N2   N   0.111084789566700   0.388864467381203   0.625138651067848   1.0000000
N2   N   0.277787552041910   0.888908437417149   0.624674580505027   1.0000000
N2   N   0.611135532618755   0.888915210433350   0.625138651067848   1.0000000
N2   N   0.444238135278705   0.388785734306058   0.628164994748661   1.0000000
N2   N   0.944446344481138   0.888915210433350   0.625138651067848   1.0000000
N2   N   0.111103999730314   0.888896000269663   0.125144902088469   1.0000000
N2   N   0.777791229015273   0.388846062312973   0.625733966468036   1.0000000
N2   N   0.444458667206080   0.888896000269663   0.125144902088469   1.0000000
N2   N   0.277721499964327   0.388846062312973   0.124266033531915   1.0000000
N2   N   0.277782687917104   0.555539799308897   0.125182488047137   1.0000000
N2   N   0.611214265694037   0.388785734306058   0.121835005251405   1.0000000
N2   N   0.777803920877461   0.888941175088164   0.124477987421652   1.0000000
N2   N   0.944446344481138   0.388864467381203   0.124861348932127   1.0000000
N2   N   0.111103999730314   0.555541332793940   0.624855097911529   1.0000000
N2   N   0.277782687917104   0.055576221941622   0.624817511952863   1.0000000
N2   N   0.777756435737773   0.555544884535564   0.625668427499821   1.0000000
N2   N   0.611135532618755   0.055553655518821   0.625138651067848   1.0000000
N2   N   0.944441397578573   0.055558602421445   0.625382529771111   1.0000000
N2   N   0.054443319123247   0.110361447191625   0.375000000000000   1.0000000
N2   N   0.555583292741772   0.620841065628714   0.375000000000000   1.0000000
N2   N   0.387564676937359   0.108462687208023   0.375000000000000   1.0000000
N2   N   0.891537312791940   0.612435323062715   0.375000000000000   1.0000000
N2   N   0.722584794735051   0.110361447191625   0.375000000000000   1.0000000
N2   N   0.055550165551421   0.777760663400301   0.875000000000000   1.0000000
N2   N   0.388877164515517   0.777760663400301   0.875000000000000   1.0000000
N2   N   0.222244458915915   0.277788896124623   0.875000000000000   1.0000000
N2   N   0.722211103875348   0.777755541084090   0.875000000000000   1.0000000
N2   N   0.555553116748032   0.277769964923105   0.875000000000000   1.0000000
N2   N   0.888906058605467   0.277791303983154   0.875000000000000   1.0000000
N2   N   0.222222222222221   0.777777777777779   0.375000000000000   1.0000000
N2   N   0.054443319123249   0.277415205264937   0.375000000000000   1.0000000
N2   N   0.379158934371234   0.268075560446248   0.375000000000000   1.0000000
N2   N   0.555092356634800   0.781635254938781   0.375000000000000   1.0000000
N2   N   0.893209564970706   0.781635254938781   0.375000000000000   1.0000000
N2   N   0.724017983128864   0.275982016871147   0.375000000000000   1.0000000
N2   N   0.055552899406517   0.944447100593487   0.875000000000000   1.0000000
N2   N   0.388877164515517   0.944449834448550   0.875000000000000   1.0000000
N2   N   0.222221127077049   0.444452309974069   0.875000000000000   1.0000000
N2   N   0.555555555555557   0.444444444444443   0.875000000000000   1.0000000
N2   N   0.722208696016885   0.944448087955758   0.875000000000000   1.0000000
N2   N   0.888897849563644   0.444452309974069   0.875000000000000   1.0000000
N2   N   0.055776259278049   0.444885851889461   0.375000000000000   1.0000000
N2   N   0.221815382881547   0.943344028417979   0.375000000000000   1.0000000
N2   N   0.555114148110601   0.944223740721958   0.375000000000000   1.0000000
N2   N   0.379158934371234   0.444416707258301   0.375000000000000   1.0000000
N2   N   0.889638552808337   0.945556680876765   0.375000000000000   1.0000000
N2   N   0.731924439553632   0.444416707258301   0.375000000000000   1.0000000
N2   N   0.222239336599712   0.611122835484479   0.875000000000000   1.0000000
N2   N   0.055551912044266   0.111093941394480   0.875000000000000   1.0000000
N2   N   0.555553116748032   0.611116485158267   0.875000000000000   1.0000000
N2   N   0.388878601673135   0.111090536679587   0.875000000000000   1.0000000
N2   N   0.888909463320388   0.611121398326942   0.875000000000000   1.0000000
N2   N   0.056655971582035   0.611804687796968   0.375000000000000   1.0000000
N2   N   0.722208696016885   0.111093941394480   0.875000000000000   1.0000000
N2   N   0.218364745061192   0.106790435029336   0.375000000000000   1.0000000
N2   N   0.387564676937359   0.612435323062715   0.375000000000000   1.0000000
N2   N   0.731924439553632   0.620841065628714   0.375000000000000   1.0000000
N2   N   0.555092356634800   0.106790435029336   0.375000000000000   1.0000000
N2   N   0.388878601673135   0.611121398326942   0.875000000000000   1.0000000
N2   N   0.888888888888886   0.111111111111114   0.375000000000000   1.0000000
N2   N   0.222222222222221   0.777777777777779   0.875000000000000   1.0000000
N2   N   0.055551912044265   0.277791303983146   0.875000000000000   1.0000000
N2   N   0.388883514841752   0.277769964923105   0.875000000000000   1.0000000
N2   N   0.555547690026022   0.777778872922828   0.875000000000000   1.0000000
N2   N   0.888897849563644   0.777778872922828   0.875000000000000   1.0000000
N2   N   0.722211103875348   0.277788896124623   0.875000000000000   1.0000000
N2   N   0.056655971582035   0.778184617118432   0.375000000000000   1.0000000
N2   N   0.388195312203103   0.778184617118432   0.375000000000000   1.0000000
N2   N   0.218630700408897   0.275982016871147   0.375000000000000   1.0000000
N2   N   0.724017983128864   0.781369299591041   0.375000000000000   1.0000000
N2   N   0.555583292741772   0.268075560446248   0.375000000000000   1.0000000
N2   N   0.889638552808337   0.277415205264937   0.375000000000000   1.0000000
N2   N   0.055552899406517   0.444439132146348   0.875000000000000   1.0000000
N2   N   0.222239336599712   0.944449834448550   0.875000000000000   1.0000000
N2   N   0.555560867853621   0.944447100593487   0.875000000000000   1.0000000
N2   N   0.388883514841752   0.444446883251949   0.875000000000000   1.0000000
N2   N   0.888906058605467   0.944448087955758   0.875000000000000   1.0000000
N2   N   0.055776259278049   0.944223740721958   0.375000000000000   1.0000000
N2   N   0.722230035076913   0.444446883251949   0.875000000000000   1.0000000
N2   N   0.388195312203103   0.943344028417979   0.375000000000000   1.0000000
N2   N   0.218364745061192   0.444907643365199   0.375000000000000   1.0000000
N2   N   0.221815382881547   0.611804687796968   0.375000000000000   1.0000000
N2   N   0.722584794735051   0.945556680876765   0.375000000000000   1.0000000
N2   N   0.893209564970706   0.444907643365199   0.375000000000000   1.0000000
N2   N   0.055550165551421   0.611122835484479   0.875000000000000   1.0000000
N2   N   0.222221127077049   0.111102150436346   0.875000000000000   1.0000000
N2   N   0.722230035076913   0.611116485158258   0.875000000000000   1.0000000
N2   N   0.555547690026022   0.111102150436346   0.875000000000000   1.0000000
N2   N   0.888888888888886   0.111111111111114   0.875000000000000   1.0000000
B2   B   0.109088913660777   0.053906509710039   0.375000000000000   1.0000000
B2   B   0.622492928567848   0.578319190469052   0.375000000000000   1.0000000
B2   B   0.443893636469156   0.053894876688341   0.375000000000000   1.0000000
B2   B   0.946105123311628   0.556106363530791   0.375000000000000   1.0000000
B2   B   0.778176263610598   0.055754798471961   0.375000000000000   1.0000000
B2   B   0.111001583540491   0.722167458436934   0.875000000000000   1.0000000
B2   B   0.444357444490251   0.722151035611203   0.875000000000000   1.0000000
B2   B   0.277901348314929   0.222364366082663   0.875000000000000   1.0000000
B2   B   0.777635633917315   0.722098651685124   0.875000000000000   1.0000000
B2   B   0.611129684434415   0.222364366082663   0.875000000000000   1.0000000
B2   B   0.944500492430978   0.222334318195247   0.875000000000000   1.0000000
B2   B   0.277527317427947   0.722472682571988   0.375000000000000   1.0000000
B2   B   0.109105630325432   0.221219481829360   0.375000000000000   1.0000000
B2   B   0.443184936075738   0.219703205484832   0.375000000000000   1.0000000
B2   B   0.611858776828012   0.728772467541399   0.375000000000000   1.0000000
B2   B   0.946105123311627   0.723332093114166   0.375000000000000   1.0000000
B2   B   0.778780518170592   0.221219481829361   0.375000000000000   1.0000000
B2   B   0.111111522263446   0.888888477736603   0.875000000000000   1.0000000
B2   B   0.444443622139794   0.888888477736603   0.875000000000000   1.0000000
B2   B   0.277901348314929   0.388870315565595   0.875000000000000   1.0000000
B2   B   0.611108811067236   0.388891188932888   0.875000000000000   1.0000000
B2   B   0.777755012064790   0.888843357462872   0.875000000000000   1.0000000
B2   B   0.944481043798981   0.388856634635375   0.875000000000000   1.0000000
B2   B   0.109088913660768   0.388515737284060   0.375000000000000   1.0000000
B2   B   0.277527317427947   0.888387968189223   0.375000000000000   1.0000000
B2   B   0.611484262715816   0.890911086339226   0.375000000000000   1.0000000
B2   B   0.421680809530998   0.377507071432139   0.375000000000000   1.0000000
B2   B   0.946093490289960   0.890911086339226   0.375000000000000   1.0000000
B2   B   0.783580357380087   0.388141223171952   0.375000000000000   1.0000000
B2   B   0.277848964388825   0.555642555509734   0.875000000000000   1.0000000
B2   B   0.111042257503033   0.055518956201002   0.875000000000000   1.0000000
B2   B   0.611108811067236   0.555550955467553   0.875000000000000   1.0000000
B2   B   0.444357444490251   0.055539742212429   0.875000000000000   1.0000000
B2   B   0.944460257787546   0.555642555509734   0.875000000000000   1.0000000
B2   B   0.111280830174865   0.555894993683015   0.375000000000000   1.0000000
B2   B   0.777665681804695   0.055499507569043   0.875000000000000   1.0000000
B2   B   0.276667906885853   0.053894876688341   0.375000000000000   1.0000000
B2   B   0.443184936075738   0.556815063924252   0.375000000000000   1.0000000
B2   B   0.780296794515188   0.556815063924252   0.375000000000000   1.0000000
B2   B   0.611484262715816   0.053906509710039   0.375000000000000   1.0000000
B2   B   0.444473652967319   0.555526347032765   0.875000000000000   1.0000000
B2   B   0.944245201528066   0.055754798471961   0.375000000000000   1.0000000
B2   B   0.277832541563098   0.722167458436934   0.875000000000000   1.0000000
B2   B   0.111156642537127   0.222244987935242   0.875000000000000   1.0000000
B2   B   0.444473652967319   0.222280639267894   0.875000000000000   1.0000000
B2   B   0.611129684434415   0.722098651685124   0.875000000000000   1.0000000
B2   B   0.944460257787546   0.722151035611203   0.875000000000000   1.0000000
B2   B   0.777755012064790   0.222244987935238   0.875000000000000   1.0000000
B2   B   0.111612031810778   0.722472682571988   0.375000000000000   1.0000000
B2   B   0.443893636469156   0.723332093114166   0.375000000000000   1.0000000
B2   B   0.271227532458618   0.216419642619963   0.375000000000000   1.0000000
B2   B   0.783580357380087   0.728772467541399   0.375000000000000   1.0000000
B2   B   0.611858776828012   0.216419642619963   0.375000000000000   1.0000000
B2   B   0.944245201528066   0.221823736389398   0.375000000000000   1.0000000
B2   B   0.111042257503033   0.388856634635375   0.875000000000000   1.0000000
B2   B   0.277832541563098   0.888998416459524   0.875000000000000   1.0000000
B2   B   0.611143365364677   0.888957742496925   0.875000000000000   1.0000000
B2   B   0.444449044532407   0.388891188932888   0.875000000000000   1.0000000
B2   B   0.944481043798981   0.888957742496925   0.875000000000000   1.0000000
B2   B   0.111280830174865   0.888719169825139   0.375000000000000   1.0000000
B2   B   0.777635633917315   0.388870315565595   0.875000000000000   1.0000000
B2   B   0.444105006316989   0.888719169825139   0.375000000000000   1.0000000
B2   B   0.271227532458618   0.388141223171952   0.375000000000000   1.0000000
B2   B   0.276667906885853   0.556106363530791   0.375000000000000   1.0000000
B2   B   0.622492928567848   0.377507071432139   0.375000000000000   1.0000000
B2   B   0.778780518170592   0.890894369674549   0.375000000000000   1.0000000
B2   B   0.946093490289960   0.388515737284060   0.375000000000000   1.0000000
B2   B   0.111111522263446   0.555556377860235   0.875000000000000   1.0000000
B2   B   0.277848964388835   0.055539742212429   0.875000000000000   1.0000000
B2   B   0.777719360732026   0.555526347032765   0.875000000000000   1.0000000
B2   B   0.611143365364677   0.055518956201002   0.875000000000000   1.0000000
B2   B   0.944500492430978   0.055499507569043   0.875000000000000   1.0000000
B2   B   0.055541638024819   0.111080610912376   0.124709700216618   1.0000000
B2   B   0.555730370449888   0.610951399041891   0.123920339833563   1.0000000
B2   B   0.388986604512898   0.111306542359122   0.125159639543568   1.0000000
B2   B   0.888693457640861   0.611013395487041   0.125159639543568   1.0000000
B2   B   0.722205639554136   0.111080610912376   0.124709700216618   1.0000000
B2   B   0.055429969562390   0.777676975709631   0.624701698457864   1.0000000
B2   B   0.388913672813942   0.777676975709631   0.624701698457864   1.0000000
B2   B   0.222374288685736   0.277853811009562   0.625528539437714   1.0000000
B2   B   0.722146188990404   0.777625711314211   0.625528539437714   1.0000000
B2   B   0.555730370449888   0.278112304741419   0.626079660166420   1.0000000
B2   B   0.888919389087691   0.277794360445806   0.625290299783365   1.0000000
B2   B   0.222222222222221   0.777777777777779   0.125366075135330   1.0000000
B2   B   0.055541638024819   0.277794360445806   0.124709700216618   1.0000000
B2   B   0.389048600958136   0.278112304741419   0.123920339833563   1.0000000
B2   B   0.555612289326015   0.777697455416667   0.124941681202452   1.0000000
B2   B   0.888751832757425   0.777697455416667   0.124941681202452   1.0000000
B2   B   0.722146188990404   0.277853811009544   0.124471460562283   1.0000000
B2   B   0.055501514668513   0.944498485331455   0.624971902634024   1.0000000
B2   B   0.388913672813942   0.944570030437558   0.624701698457864   1.0000000
B2   B   0.222302544583333   0.444387710674008   0.625058318797578   1.0000000
B2   B   0.555555555555557   0.444444444444443   0.624199557609678   1.0000000
B2   B   0.722205639554136   0.944458361975225   0.625290299783365   1.0000000
B2   B   0.888751832757425   0.444387710674008   0.625058318797578   1.0000000
B2   B   0.055501514668513   0.444336362670362   0.125028097365853   1.0000000
B2   B   0.222323024290325   0.944570030437558   0.125298301542107   1.0000000
B2   B   0.555663637329693   0.944498485331455   0.125028097365853   1.0000000
B2   B   0.389048600958136   0.444269629550103   0.123920339833563   1.0000000
B2   B   0.888919389087691   0.944458361975225   0.124709700216618   1.0000000
B2   B   0.721887695258659   0.444269629550103   0.123920339833563   1.0000000
B2   B   0.222323024290325   0.611086327186089   0.624701698457864   1.0000000
B2   B   0.055541638024819   0.111080610912376   0.625290299783365   1.0000000
B2   B   0.555730370449888   0.610951399041891   0.626079660166420   1.0000000
B2   B   0.388986604512898   0.111306542359120   0.624840360456373   1.0000000
B2   B   0.888693457640861   0.611013395487041   0.624840360456372   1.0000000
B2   B   0.055429969562390   0.611086327186089   0.125298301542107   1.0000000
B2   B   0.722205639554136   0.111080610912376   0.625290299783365   1.0000000
B2   B   0.222302544583333   0.111248167242681   0.124941681202452   1.0000000
B2   B   0.388986604512898   0.611013395487041   0.125159639543568   1.0000000
B2   B   0.721887695258659   0.610951399041891   0.123920339833563   1.0000000
B2   B   0.555612289326015   0.111248167242681   0.124941681202452   1.0000000
B2   B   0.388986604512898   0.611013395487041   0.624840360456372   1.0000000
B2   B   0.888888888888886   0.111111111111114   0.124672453755789   1.0000000
B2   B   0.222222222222221   0.777777777777779   0.624633924864682   1.0000000
B2   B   0.055541638024819   0.277794360445806   0.625290299783365   1.0000000
B2   B   0.389048600958136   0.278112304741419   0.626079660166420   1.0000000
B2   B   0.555612289326015   0.777697455416667   0.625058318797578   1.0000000
B2   B   0.888751832757425   0.777697455416667   0.625058318797578   1.0000000
B2   B   0.722146188990404   0.277853811009562   0.625528539437714   1.0000000
B2   B   0.055429969562390   0.777676975709631   0.125298301542107   1.0000000
B2   B   0.388913672813942   0.777676975709631   0.125298301542107   1.0000000
B2   B   0.222374288685736   0.277853811009562   0.124471460562283   1.0000000
B2   B   0.722146188990404   0.777625711314211   0.124471460562283   1.0000000
B2   B   0.555730370449888   0.278112304741419   0.123920339833563   1.0000000
B2   B   0.888919389087691   0.277794360445806   0.124709700216618   1.0000000
B2   B   0.055501514668513   0.444336362670362   0.624971902634024   1.0000000
B2   B   0.222323024290325   0.944570030437558   0.624701698457864   1.0000000
B2   B   0.555663637329693   0.944498485331455   0.624971902634024   1.0000000
B2   B   0.389048600958136   0.444269629550103   0.626079660166420   1.0000000
B2   B   0.888919389087691   0.944458361975225   0.625290299783365   1.0000000
B2   B   0.055501514668513   0.944498485331455   0.125028097365853   1.0000000
B2   B   0.721887695258659   0.444269629550103   0.626079660166420   1.0000000
B2   B   0.388913672813942   0.944570030437558   0.125298301542107   1.0000000
B2   B   0.222302544583333   0.444387710674008   0.124941681202452   1.0000000
B2   B   0.222323024290325   0.611086327186089   0.125298301542107   1.0000000
B2   B   0.555555555555557   0.444444444444443   0.125800442390386   1.0000000
B2   B   0.722205639554136   0.944458361975225   0.124709700216618   1.0000000
B2   B   0.888751832757425   0.444387710674008   0.124941681202452   1.0000000
B2   B   0.055429969562390   0.611086327186089   0.624701698457864   1.0000000
B2   B   0.222302544583333   0.111248167242681   0.625058318797578   1.0000000
B2   B   0.721887695258659   0.610951399041891   0.626079660166420   1.0000000
B2   B   0.555612289326015   0.111248167242681   0.625058318797578   1.0000000
B2   B   0.888888888888886   0.111111111111114   0.625327546244266   1.0000000


