data_1
_audit_creation_method   'vasp2cif'
_cell_length_a    17.52789999999977
_cell_length_b    17.52789999999977
_cell_length_c    15.0
_cell_angle_alpha    90.0
_cell_angle_beta    90.0
_cell_angle_gamma    119.99999999999916

_symmetry_space_group_name_H-M    'P 1'
loop_
_atom_site_label
_atom_site_type_symbol
_atom_site_fract_x
_atom_site_fract_y
_atom_site_fract_z
_atom_site_occupancy
B2   B   0.904849845387962   0.952414879270818   0.106105456347581   1.0000000
B2   B   0.904785809886906   0.095217362694829   0.104800446181419   1.0000000
B2   B   0.904749649695167   0.238080715481346   0.104532394912922   1.0000000
B2   B   0.904762922780918   0.380966006962426   0.105102926426067   1.0000000
B2   B   0.904846570817431   0.523847938008487   0.106445949309001   1.0000000
B2   B   0.904807097268509   0.666710697745925   0.108701999620214   1.0000000
B2   B   0.904806991815161   0.809528447911260   0.108536776461576   1.0000000
B2   B   0.047636326415645   0.952365785924582   0.106643209763442   1.0000000
B2   B   0.047588558196262   0.095154611525191   0.106106099709060   1.0000000
B2   B   0.047527781454718   0.238001870724745   0.105807177230891   1.0000000
B2   B   0.047506922109695   0.380934525841660   0.105956287621026   1.0000000
B2   B   0.047555666965092   0.523846947271207   0.106392029375730   1.0000000
B2   B   0.047628735426399   0.666710143174460   0.106855263834172   1.0000000
B2   B   0.047634895748873   0.809551599857420   0.107222540512786   1.0000000
B2   B   0.190450040673571   0.952366245836667   0.107224451877847   1.0000000
B2   B   0.190472901522808   0.095196610542592   0.108538490251654   1.0000000
B2   B   0.190187266244951   0.237750663213267   0.109670581117066   1.0000000
B2   B   0.190123596362854   0.380762062451341   0.110368301725803   1.0000000
B2   B   0.190152709464084   0.523841590829496   0.109771221635607   1.0000000
B2   B   0.190464710644498   0.666717925407049   0.108599579679475   1.0000000
B2   B   0.190459364822823   0.809540959233392   0.107233132483566   1.0000000
B2   B   0.333291601747394   0.952374845745737   0.106858915086685   1.0000000
B2   B   0.333291120790432   0.095195493256311   0.108703924132300   1.0000000
B2   B   0.333268455293219   0.237975357964495   0.115595566820959   1.0000000
B2   B   0.331887221486476   0.379789402699233   0.123652558332248   1.0000000
B2   B   0.331873666983065   0.523501396166738   0.123636735755892   1.0000000
B2   B   0.333277524064887   0.666723374481004   0.115504674761648   1.0000000
B2   B   0.333281902048521   0.809536403677725   0.108599774376368   1.0000000
B2   B   0.476154769805814   0.952446326901607   0.106393687545546   1.0000000
B2   B   0.476151551975557   0.095153782340963   0.106449409531117   1.0000000
B2   B   0.476148673986251   0.237753788823638   0.109860316762711   1.0000000
B2   B   0.476496073807488   0.379792509841794   0.123736782685328   1.0000000
B2   B   0.476499668129699   0.668128510913573   0.123638673153097   1.0000000
B2   B   0.476161738918876   0.809848509219160   0.109774879345461   1.0000000
B2   B   0.619068788471598   0.952497628040219   0.105959928004047   1.0000000
B2   B   0.619036825929787   0.095240716128484   0.105103425376575   1.0000000
B2   B   0.619073957043332   0.238004593862412   0.106146708845984   1.0000000
B2   B   0.619221208561195   0.380780298290275   0.110531447265016   1.0000000
B2   B   0.620206608115908   0.523506146334432   0.123737162812355   1.0000000
B2   B   0.620214112137611   0.668112834564812   0.123654592675324   1.0000000
B2   B   0.619237930550872   0.809875327794005   0.110369028722706   1.0000000
B2   B   0.762003369792461   0.952476998636195   0.105809127312285   1.0000000
B2   B   0.761921579898288   0.095251884194479   0.104532419290376   1.0000000
B2   B   0.761919847256322   0.238080547152452   0.104692227834783   1.0000000
B2   B   0.761998329835058   0.380929671918950   0.106145552878104   1.0000000
B2   B   0.762249378272636   0.523853790974980   0.109857852124892   1.0000000
B2   B   0.762024687616653   0.666733163408405   0.115590825912794   1.0000000
B2   B   0.762248743056168   0.809813290125961   0.109671989372092   1.0000000
N2   N   0.952405153216799   0.904753110788248   0.106734895996365   1.0000000
N2   N   0.952397993373597   0.047604304162925   0.105310525525067   1.0000000
N2   N   0.952343685555604   0.190434415305288   0.104721307488660   1.0000000
N2   N   0.952329226742327   0.333312632585648   0.104905213726034   1.0000000
N2   N   0.952377366205868   0.476196867174568   0.105664401117961   1.0000000
N2   N   0.952398829667945   0.619078735864633   0.107039605996453   1.0000000
N2   N   0.952425289700526   0.761927955717228   0.108218390212802   1.0000000
N2   N   0.095240195502713   0.904754960136605   0.106907647910123   1.0000000
N2   N   0.095250657632693   0.047598768728361   0.106735325107220   1.0000000
N2   N   0.095107542090450   0.190337837433128   0.106502739696560   1.0000000
N2   N   0.095049123957989   0.333238351588845   0.106666611100083   1.0000000
N2   N   0.095070766863778   0.476179799683839   0.106727638564024   1.0000000
N2   N   0.095232968385372   0.619082878617281   0.106967546074501   1.0000000
N2   N   0.095238644843336   0.761933428063226   0.106983907822033   1.0000000
N2   N   0.238067694795082   0.904761637279618   0.106985690384247   1.0000000
N2   N   0.238072490914019   0.047578093334878   0.108222755492757   1.0000000
N2   N   0.238063926968404   0.190402559516432   0.111220523848426   1.0000000
N2   N   0.237529109607061   0.332846257490549   0.112267495862649   1.0000000
N2   N   0.237513812341374   0.476091158708533   0.112305160549927   1.0000000
N2   N   0.238059426854053   0.619088272509290   0.111205315249736   1.0000000
N2   N   0.238063186302857   0.761935522133628   0.108193450984136   1.0000000
N2   N   0.380917945018410   0.904770457357616   0.106969548706577   1.0000000
N2   N   0.380922367358305   0.047603632703803   0.107042665499128   1.0000000
N2   N   0.380911791123234   0.190405563811811   0.111328736298292   1.0000000
N2   N   0.380789771551294   0.332985000786221   0.124414132572035   1.0000000
N2   N   0.376531422377992   0.473977506454344   0.135031868104630   1.0000000
N2   N   0.380781548265159   0.619218560168161   0.124347478074157   1.0000000
N2   N   0.380914088635940   0.761942845674583   0.111207440724487   1.0000000
N2   N   0.523821080956544   0.904930335185105   0.106729354058963   1.0000000
N2   N   0.523804264876853   0.047624833842876   0.105667102847924   1.0000000
N2   N   0.523822976724634   0.190336325215337   0.106820447649736   1.0000000
N2   N   0.523907916397347   0.332857759582494   0.112401490707465   1.0000000
N2   N   0.526012989064156   0.473985905782514   0.135137023196942   1.0000000
N2   N   0.526024812048959   0.623470663728256   0.135033931967041   1.0000000
N2   N   0.523909692849906   0.762487785274188   0.112307702869028   1.0000000
N2   N   0.666766286540159   0.904953757081904   0.106669282146289   1.0000000
N2   N   0.666690949333577   0.047675212919857   0.104907033303695   1.0000000
N2   N   0.666695938442691   0.190448902915767   0.105040404716693   1.0000000
N2   N   0.666762814339469   0.333241142575134   0.106948133110091   1.0000000
N2   N   0.667143204020799   0.476094152676364   0.112400438315529   1.0000000
N2   N   0.667015991879077   0.619210298184301   0.124414513671326   1.0000000
N2   N   0.667153030088531   0.762471102638748   0.112269862392987   1.0000000
N2   N   0.809665659664147   0.904896055165740   0.106502787855134   1.0000000
N2   N   0.809568681476615   0.047660153637380   0.104722273804230   1.0000000
N2   N   0.809526994202220   0.190473249095099   0.104304697225655   1.0000000
N2   N   0.809553060939359   0.333305355506978   0.105039818627440   1.0000000
N2   N   0.809664886340260   0.476178524034105   0.106818165925731   1.0000000
N2   N   0.809596329138794   0.619090323967590   0.111324332346417   1.0000000
N2   N   0.809599510624405   0.761937223077564   0.111218693090197   1.0000000
P2   P   0.476163071213395   0.523829507054203   0.187631988687805   1.0000000


