data_1
_audit_creation_method   'vasp2cif'
_cell_length_a    14.93631414619966
_cell_length_b    14.936314146199727
_cell_length_c    13.341276283792837
_cell_angle_alpha    90.0
_cell_angle_beta    90.0
_cell_angle_gamma    119.99999999999984

_symmetry_space_group_name_H-M    'P 1'
loop_
_atom_site_label
_atom_site_type_symbol
_atom_site_fract_x
_atom_site_fract_y
_atom_site_fract_z
_atom_site_occupancy
C2   C   0.393905878711623   0.441430294672537   0.375000000000000   1.0000000
C2   C   0.441745429684020   0.378363520095493   0.375000000000000   1.0000000
C2   C   0.543714622237587   0.445163996807286   0.375000000000000   1.0000000
N2   N   0.111058351780341   0.055511350479227   0.125165057200080   1.0000000
N2   N   0.611073532667654   0.555511216481684   0.125597799323641   1.0000000
N2   N   0.444416442038827   0.055528632111263   0.125200636537763   1.0000000
N2   N   0.944410828118523   0.555544627272139   0.125591673449858   1.0000000
N2   N   0.777748437936681   0.055544627821957   0.125077189059401   1.0000000
N2   N   0.111090631230927   0.722199896876779   0.624802480995791   1.0000000
N2   N   0.444428408223608   0.722194896229026   0.624706267089490   1.0000000
N2   N   0.277719056819192   0.222172291832964   0.624927660866397   1.0000000
N2   N   0.777741038917846   0.722192747116404   0.624556396290806   1.0000000
N2   N   0.611089698177842   0.222211528639474   0.624604035264599   1.0000000
N2   N   0.944414574860207   0.222224256940503   0.624861903103207   1.0000000
N2   N   0.277765444083761   0.722200088314160   0.125204047581012   1.0000000
N2   N   0.111070984978115   0.222195679374398   0.125163471588191   1.0000000
N2   N   0.444377838324635   0.222173529530974   0.125077303188138   1.0000000
N2   N   0.611090100684144   0.722198148118064   0.125326122090264   1.0000000
N2   N   0.944413885132327   0.722195359303790   0.125333544346030   1.0000000
N2   N   0.777744381821998   0.222218816018925   0.125279301003881   1.0000000
N2   N   0.111077398243897   0.888855033916450   0.624882321869896   1.0000000
N2   N   0.444424054425576   0.888868563410367   0.624856150054353   1.0000000
N2   N   0.277757177703780   0.388853490579139   0.624890597966452   1.0000000
N2   N   0.611038300859237   0.388861191697442   0.624910986207054   1.0000000
N2   N   0.777748565922240   0.888873543098337   0.624898957982896   1.0000000
N2   N   0.944418646573966   0.388897697456586   0.624710303540520   1.0000000
N2   N   0.111093971495815   0.388887313527796   0.125224067148261   1.0000000
N2   N   0.277756728125988   0.888860738174898   0.125134485750534   1.0000000
N2   N   0.611083817969564   0.888872693837283   0.125142163567670   1.0000000
N2   N   0.444378186258445   0.388810285778509   0.124220857920716   1.0000000
N2   N   0.944405872528401   0.888855527083179   0.125138944324273   1.0000000
N2   N   0.777731429000311   0.388889772970040   0.125964335750033   1.0000000
N2   N   0.277777271090721   0.555534052212272   0.624623246971026   1.0000000
N2   N   0.111058351780341   0.055511350479227   0.624834942799920   1.0000000
N2   N   0.611073532667654   0.555511216481684   0.624402200676360   1.0000000
N2   N   0.444416442038827   0.055528632111263   0.624799363462237   1.0000000
N2   N   0.944410828118523   0.555544627272139   0.624408326550143   1.0000000
N2   N   0.111097709076366   0.555551344510501   0.125263547299005   1.0000000
N2   N   0.777748437936681   0.055544627821957   0.624922810940598   1.0000000
N2   N   0.277732035187628   0.055512194701341   0.125170942658940   1.0000000
N2   N   0.444438567178111   0.555515397041076   0.125335537272485   1.0000000
N2   N   0.777726559142115   0.555520788472587   0.126152813931745   1.0000000
N2   N   0.611082651063061   0.055543846859787   0.125174357910949   1.0000000
N2   N   0.444438567178111   0.555515397041076   0.624664462727515   1.0000000
N2   N   0.944404477602592   0.055532701454091   0.125096349401403   1.0000000
N2   N   0.277765444083761   0.722200088314160   0.624795952418988   1.0000000
N2   N   0.111070984978115   0.222195679374398   0.624836528411808   1.0000000
N2   N   0.444377838324635   0.222173529530974   0.624922696811862   1.0000000
N2   N   0.611090100684144   0.722198148118064   0.624673877909736   1.0000000
N2   N   0.944413885132327   0.722195359303790   0.624666455653969   1.0000000
N2   N   0.777744381821998   0.222218816018925   0.624720698996119   1.0000000
N2   N   0.111090631230927   0.722199896876779   0.125197519004209   1.0000000
N2   N   0.444428408223608   0.722194896229026   0.125293732910511   1.0000000
N2   N   0.277719056819192   0.222172291832964   0.125072339133603   1.0000000
N2   N   0.777741038917846   0.722192747116404   0.125443603709196   1.0000000
N2   N   0.611089698177842   0.222211528639474   0.125395964735402   1.0000000
N2   N   0.944414574860207   0.222224256940503   0.125138096896793   1.0000000
N2   N   0.111093971495815   0.388887313527796   0.624775932851739   1.0000000
N2   N   0.277756728125988   0.888860738174898   0.624865514249466   1.0000000
N2   N   0.611083817969564   0.888872693837283   0.624857836432330   1.0000000
N2   N   0.444378186258445   0.388810285778509   0.625779142079285   1.0000000
N2   N   0.944405872528401   0.888855527083179   0.624861055675727   1.0000000
N2   N   0.111077398243897   0.888855033916450   0.125117678130104   1.0000000
N2   N   0.777731429000311   0.388889772970040   0.624035664249967   1.0000000
N2   N   0.444424054425576   0.888868563410367   0.125143849945648   1.0000000
N2   N   0.277757177703780   0.388853490579139   0.125109402033549   1.0000000
N2   N   0.277777271090721   0.555534052212272   0.125376753028974   1.0000000
N2   N   0.611038300859237   0.388861191697442   0.125089013792945   1.0000000
N2   N   0.777748565922240   0.888873543098337   0.125101042017104   1.0000000
N2   N   0.944418646573966   0.388897697456586   0.125289696459479   1.0000000
N2   N   0.111097709076366   0.555551344510501   0.624736452700996   1.0000000
N2   N   0.277732035187628   0.055512194701341   0.624829057341060   1.0000000
N2   N   0.777726559142115   0.555520788472587   0.623847186068255   1.0000000
N2   N   0.611082651063061   0.055543846859787   0.624825642089049   1.0000000
N2   N   0.944404477602592   0.055532701454091   0.624903650598597   1.0000000
N2   N   0.054856544227614   0.110466702362182   0.375000000000000   1.0000000
N2   N   0.559886242030125   0.616134783421989   0.375000000000000   1.0000000
N2   N   0.387620554936493   0.109170741187990   0.375000000000000   1.0000000
N2   N   0.889001022162504   0.611636421929884   0.375000000000000   1.0000000
N2   N   0.722384827119819   0.111959960802622   0.375000000000000   1.0000000
N2   N   0.055559755686961   0.777788629544501   0.875000000000000   1.0000000
N2   N   0.388899205256205   0.777790537476144   0.875000000000000   1.0000000
N2   N   0.222228004456251   0.277788927175122   0.875000000000000   1.0000000
N2   N   0.722231819886672   0.777789495202613   0.875000000000000   1.0000000
N2   N   0.555563080020889   0.277790144882889   0.875000000000000   1.0000000
N2   N   0.888899037202288   0.277791191788355   0.875000000000000   1.0000000
N2   N   0.222391221349650   0.776965654035025   0.375000000000000   1.0000000
N2   N   0.055128680995590   0.277671845054915   0.375000000000000   1.0000000
N2   N   0.386224828577741   0.274385452928570   0.375000000000000   1.0000000
N2   N   0.556791918711794   0.779617459909148   0.375000000000000   1.0000000
N2   N   0.890177022823725   0.779054631930060   0.375000000000000   1.0000000
N2   N   0.722610512579463   0.278665591059033   0.375000000000000   1.0000000
N2   N   0.055561832892292   0.944459956527544   0.875000000000000   1.0000000
N2   N   0.388899320872562   0.944458293346527   0.875000000000000   1.0000000
N2   N   0.222229084176940   0.444455082123822   0.875000000000000   1.0000000
N2   N   0.555563497951180   0.444461197784838   0.875000000000000   1.0000000
N2   N   0.722232660148273   0.944457950994948   0.875000000000000   1.0000000
N2   N   0.888897940012990   0.444455581199036   0.875000000000000   1.0000000
N2   N   0.055487028786969   0.444329346760779   0.375000000000000   1.0000000
N2   N   0.221975458107860   0.943443799658921   0.375000000000000   1.0000000
N2   N   0.555861813278961   0.945284377961567   0.375000000000000   1.0000000
N2   N   0.889682978272376   0.945495569527842   0.375000000000000   1.0000000
N2   N   0.719096110287606   0.445063430830219   0.375000000000000   1.0000000
N2   N   0.222227559347525   0.611118052769252   0.875000000000000   1.0000000
N2   N   0.055562024381764   0.111122120115308   0.875000000000000   1.0000000
N2   N   0.555563440451208   0.611118860514826   0.875000000000000   1.0000000
N2   N   0.388897421558605   0.111122047599561   0.875000000000000   1.0000000
N2   N   0.888893898600169   0.611119132875511   0.875000000000000   1.0000000
N2   N   0.055496188962400   0.610610147627097   0.375000000000000   1.0000000
N2   N   0.722230599759711   0.111123894079450   0.875000000000000   1.0000000
N2   N   0.221429568983021   0.109889483094571   0.375000000000000   1.0000000
N2   N   0.390943816926505   0.611534495950900   0.375000000000000   1.0000000
N2   N   0.724674084639193   0.614066931906216   0.375000000000000   1.0000000
N2   N   0.555370309179405   0.111320757451085   0.375000000000000   1.0000000
N2   N   0.388898688546821   0.611120232042119   0.875000000000000   1.0000000
N2   N   0.888992346615516   0.111811950739236   0.375000000000000   1.0000000
N2   N   0.222227191218837   0.777786564899630   0.875000000000000   1.0000000
N2   N   0.055563080276189   0.277789001046540   0.875000000000000   1.0000000
N2   N   0.388894461191733   0.277789264849855   0.875000000000000   1.0000000
N2   N   0.555566307834210   0.777788780879350   0.875000000000000   1.0000000
N2   N   0.888896533035761   0.777792225841460   0.875000000000000   1.0000000
N2   N   0.722232536588274   0.277791614041982   0.875000000000000   1.0000000
N2   N   0.055877523457265   0.777552254098041   0.375000000000000   1.0000000
N2   N   0.389464121600595   0.777741981292539   0.375000000000000   1.0000000
N2   N   0.219765656832906   0.275303297839250   0.375000000000000   1.0000000
N2   N   0.724572256382547   0.780729837472375   0.375000000000000   1.0000000
N2   N   0.550361582955410   0.269972002135140   0.375000000000000   1.0000000
N2   N   0.888798959897426   0.278310711139651   0.375000000000000   1.0000000
N2   N   0.055561690836971   0.444454890927813   0.875000000000000   1.0000000
N2   N   0.222228708958883   0.944456995682431   0.875000000000000   1.0000000
N2   N   0.555565461479935   0.944459939172406   0.875000000000000   1.0000000
N2   N   0.388896676258551   0.444459527686824   0.875000000000000   1.0000000
N2   N   0.888900281366148   0.944459364943415   0.875000000000000   1.0000000
N2   N   0.055824220022886   0.944364532011833   0.375000000000000   1.0000000
N2   N   0.722232839887477   0.444457984268414   0.875000000000000   1.0000000
N2   N   0.388852466832710   0.943882465725341   0.375000000000000   1.0000000
N2   N   0.222569902011729   0.443497420846711   0.375000000000000   1.0000000
N2   N   0.223060936754783   0.610359649571033   0.375000000000000   1.0000000
N2   N   0.722940646221883   0.945917183825999   0.375000000000000   1.0000000
N2   N   0.887839362026173   0.444473712960337   0.375000000000000   1.0000000
N2   N   0.055557661360271   0.611116082781391   0.875000000000000   1.0000000
N2   N   0.222227313968227   0.111122717039323   0.875000000000000   1.0000000
N2   N   0.722227812410312   0.611120677692668   0.875000000000000   1.0000000
N2   N   0.555564508688022   0.111124414784732   0.875000000000000   1.0000000
N2   N   0.888899387620390   0.111123287309398   0.875000000000000   1.0000000
B2   B   0.110379368884137   0.054914051427437   0.375000000000000   1.0000000
B2   B   0.615779140193792   0.561831613863513   0.375000000000000   1.0000000
B2   B   0.444231902112869   0.054706114160891   0.375000000000000   1.0000000
B2   B   0.944847384944731   0.555758540492271   0.375000000000000   1.0000000
B2   B   0.778099823004518   0.056663440406746   0.375000000000000   1.0000000
B2   B   0.111130901286014   0.722243247199247   0.875000000000000   1.0000000
B2   B   0.444454497041956   0.722251482217016   0.875000000000000   1.0000000
B2   B   0.277771605492514   0.222217095558147   0.875000000000000   1.0000000
B2   B   0.777797113788226   0.722259968724582   0.875000000000000   1.0000000
B2   B   0.611109092789228   0.222213888627114   0.875000000000000   1.0000000
B2   B   0.944446498429259   0.222222239020468   0.875000000000000   1.0000000
B2   B   0.278353832946431   0.721767711875240   0.375000000000000   1.0000000
B2   B   0.108803528314140   0.220639215319225   0.375000000000000   1.0000000
B2   B   0.442679766670165   0.219616715823902   0.375000000000000   1.0000000
B2   B   0.614425785119255   0.726960111456708   0.375000000000000   1.0000000
B2   B   0.945427383179230   0.723388176623854   0.375000000000000   1.0000000
B2   B   0.778070842464879   0.222507806030793   0.375000000000000   1.0000000
B2   B   0.111127443640621   0.888913201816631   0.875000000000000   1.0000000
B2   B   0.444457380489038   0.888910854979947   0.875000000000000   1.0000000
B2   B   0.277765571301858   0.388890960884982   0.875000000000000   1.0000000
B2   B   0.611098316362296   0.388872421940046   0.875000000000000   1.0000000
B2   B   0.777794311897724   0.888924329717886   0.875000000000000   1.0000000
B2   B   0.944457874257727   0.388885914863015   0.875000000000000   1.0000000
B2   B   0.110879528424001   0.388572932279442   0.375000000000000   1.0000000
B2   B   0.277842061538867   0.888109924161418   0.375000000000000   1.0000000
B2   B   0.612008994120985   0.890663374620539   0.375000000000000   1.0000000
B2   B   0.945300481920989   0.890157915270072   0.375000000000000   1.0000000
B2   B   0.777021387127588   0.388019915844284   0.375000000000000   1.0000000
B2   B   0.277779633316582   0.555571175763527   0.875000000000000   1.0000000
B2   B   0.111113635641040   0.055566775086558   0.875000000000000   1.0000000
B2   B   0.611110991587545   0.555566181343231   0.875000000000000   1.0000000
B2   B   0.444453540070210   0.055558312027240   0.875000000000000   1.0000000
B2   B   0.944466569263291   0.555565445462586   0.875000000000000   1.0000000
B2   B   0.111679906663058   0.555263499226121   0.375000000000000   1.0000000
B2   B   0.777786356359591   0.055570276387300   0.875000000000000   1.0000000
B2   B   0.276777486472973   0.053955300575769   0.375000000000000   1.0000000
B2   B   0.449701750001923   0.559996003351173   0.375000000000000   1.0000000
B2   B   0.779146805089673   0.558588016498628   0.375000000000000   1.0000000
B2   B   0.611332143605422   0.056181659985445   0.375000000000000   1.0000000
B2   B   0.444444187507488   0.555575901935091   0.875000000000000   1.0000000
B2   B   0.944249457933903   0.056025396653885   0.375000000000000   1.0000000
B2   B   0.277791477152260   0.722244159640163   0.875000000000000   1.0000000
B2   B   0.111101586870359   0.222221758896046   0.875000000000000   1.0000000
B2   B   0.444448497061311   0.222212510389024   0.875000000000000   1.0000000
B2   B   0.611123341270813   0.722257186392782   0.875000000000000   1.0000000
B2   B   0.944470274472881   0.722254832980058   0.875000000000000   1.0000000
B2   B   0.777784895413526   0.222216924880006   0.875000000000000   1.0000000
B2   B   0.111486324496968   0.721966266518141   0.375000000000000   1.0000000
B2   B   0.445673290171592   0.723218132327560   0.375000000000000   1.0000000
B2   B   0.274402117731645   0.219637853235667   0.375000000000000   1.0000000
B2   B   0.780171964423675   0.725899017953417   0.375000000000000   1.0000000
B2   B   0.611723369699161   0.222900041862154   0.375000000000000   1.0000000
B2   B   0.944192556629514   0.222480685200171   0.375000000000000   1.0000000
B2   B   0.111108334853792   0.388891244120047   0.875000000000000   1.0000000
B2   B   0.277793143504817   0.888905616779679   0.875000000000000   1.0000000
B2   B   0.611123886296861   0.888918701845079   0.875000000000000   1.0000000
B2   B   0.444440127095400   0.388886444442647   0.875000000000000   1.0000000
B2   B   0.944462498720293   0.888923618211026   0.875000000000000   1.0000000
B2   B   0.111180278189489   0.888567485881944   0.375000000000000   1.0000000
B2   B   0.777791088888695   0.388877335194522   0.875000000000000   1.0000000
B2   B   0.444775711844663   0.888921541277280   0.375000000000000   1.0000000
B2   B   0.274362174310565   0.384782997731140   0.375000000000000   1.0000000
B2   B   0.278971426447887   0.555086449321206   0.375000000000000   1.0000000
B2   B   0.779251704643189   0.891421061370765   0.375000000000000   1.0000000
B2   B   0.944367431140135   0.388965622291832   0.375000000000000   1.0000000
B2   B   0.111123869493885   0.555565604322373   0.875000000000000   1.0000000
B2   B   0.277786444261693   0.055559642125252   0.875000000000000   1.0000000
B2   B   0.777795181477392   0.555573193179414   0.875000000000000   1.0000000
B2   B   0.611118184566686   0.055564393818680   0.875000000000000   1.0000000
B2   B   0.944449502463464   0.055572280748899   0.875000000000000   1.0000000
B2   B   0.055482881708558   0.111046713506158   0.124876105473591   1.0000000
B2   B   0.555540836212426   0.611168855833873   0.124940598388485   1.0000000
B2   B   0.388844077912179   0.111021119238581   0.124898567684420   1.0000000
B2   B   0.888955529225096   0.611161847151706   0.125240557255033   1.0000000
B2   B   0.722167837282714   0.111057280045095   0.124927385702514   1.0000000
B2   B   0.055595139187308   0.777794307963846   0.625073702368640   1.0000000
B2   B   0.388875734345330   0.777799734973442   0.625013092976536   1.0000000
B2   B   0.222119423377138   0.277688023877044   0.625328926335437   1.0000000
B2   B   0.722215284421504   0.777844714280387   0.625058206705372   1.0000000
B2   B   0.555496274947031   0.277700113478407   0.624784993038616   1.0000000
B2   B   0.888852976418525   0.277744786803438   0.625062466858838   1.0000000
B2   B   0.222242827840373   0.777787843593843   0.124942611525660   1.0000000
B2   B   0.055498000093188   0.277756006756440   0.124890569235289   1.0000000
B2   B   0.388836769295582   0.277668038848250   0.124178457685328   1.0000000
B2   B   0.555528636042043   0.777824997888389   0.124972368531239   1.0000000
B2   B   0.888917420519304   0.777821349126864   0.124959028777184   1.0000000
B2   B   0.722126356585570   0.277660358378945   0.125162491012475   1.0000000
B2   B   0.055531210397042   0.944403097728418   0.625113702670072   1.0000000
B2   B   0.388868723104058   0.944411741662448   0.625048096225706   1.0000000
B2   B   0.222168409706225   0.444442701712602   0.625051918710234   1.0000000
B2   B   0.555476560020020   0.444309612329102   0.625453277851980   1.0000000
B2   B   0.722188020335076   0.944454526771575   0.625124330117532   1.0000000
B2   B   0.888902569695698   0.444425505768625   0.624790826644653   1.0000000
B2   B   0.055550283020647   0.444453169745214   0.124980562943375   1.0000000
B2   B   0.222200624651966   0.944385349805806   0.124907320629850   1.0000000
B2   B   0.555515117762860   0.944431432730196   0.124939165917618   1.0000000
B2   B   0.388850337699742   0.444377368241210   0.124358331004118   1.0000000
B2   B   0.888860411025399   0.944446814362544   0.124861160142806   1.0000000
B2   B   0.722052131201009   0.444316912678039   0.125224197889626   1.0000000
B2   B   0.222224048811003   0.611145499626636   0.624986210110375   1.0000000
B2   B   0.055482881708558   0.111046713506158   0.625123894526408   1.0000000
B2   B   0.555540836212426   0.611168855833873   0.625059401611514   1.0000000
B2   B   0.388844077912179   0.111021119238581   0.625101432315580   1.0000000
B2   B   0.888955529225096   0.611161847151706   0.624759442744966   1.0000000
B2   B   0.055618235562725   0.611150764144079   0.125017902767625   1.0000000
B2   B   0.722167837282714   0.111057280045095   0.625072614297487   1.0000000
B2   B   0.222135751536155   0.110986115298875   0.124829116897587   1.0000000
B2   B   0.388858256976246   0.611150872341108   0.125020517472211   1.0000000
B2   B   0.722213343732120   0.611161123182373   0.125173961823040   1.0000000
B2   B   0.555505193827079   0.111049279146068   0.125012806301186   1.0000000
B2   B   0.388858256976246   0.611150872341108   0.624979482527788   1.0000000
B2   B   0.888835687610207   0.111080321816339   0.124869106545154   1.0000000
B2   B   0.222242827840373   0.777787843593843   0.625057388474340   1.0000000
B2   B   0.055498000093188   0.277756006756440   0.625109430764712   1.0000000
B2   B   0.388836769295582   0.277668038848250   0.625821542314673   1.0000000
B2   B   0.555528636042043   0.777824997888389   0.625027631468761   1.0000000
B2   B   0.888917420519304   0.777821349126864   0.625040971222816   1.0000000
B2   B   0.722126356585570   0.277660358378945   0.624837508987524   1.0000000
B2   B   0.055595139187308   0.777794307963846   0.124926297631360   1.0000000
B2   B   0.388875734345330   0.777799734973442   0.124986907023464   1.0000000
B2   B   0.222119423377138   0.277688023877044   0.124671073664563   1.0000000
B2   B   0.722215284421504   0.777844714280387   0.124941793294627   1.0000000
B2   B   0.555496274947031   0.277700113478407   0.125215006961385   1.0000000
B2   B   0.888852976418525   0.277744786803438   0.124937533141164   1.0000000
B2   B   0.055550283020647   0.444453169745214   0.625019437056626   1.0000000
B2   B   0.222200624651966   0.944385349805806   0.625092679370149   1.0000000
B2   B   0.555515117762860   0.944431432730196   0.625060834082382   1.0000000
B2   B   0.388850337699742   0.444377368241210   0.625641668995882   1.0000000
B2   B   0.888860411025399   0.944446814362544   0.625138839857192   1.0000000
B2   B   0.055531210397042   0.944403097728418   0.124886297329928   1.0000000
B2   B   0.722052131201009   0.444316912678039   0.624775802110374   1.0000000
B2   B   0.388868723104058   0.944411741662448   0.124951903774294   1.0000000
B2   B   0.222168409706225   0.444442701712602   0.124948081289766   1.0000000
B2   B   0.222224048811003   0.611145499626636   0.125013789889625   1.0000000
B2   B   0.555476560020020   0.444309612329102   0.124546722148019   1.0000000
B2   B   0.722188020335076   0.944454526771575   0.124875669882468   1.0000000
B2   B   0.888902569695698   0.444425505768625   0.125209173355347   1.0000000
B2   B   0.055618235562725   0.611150764144079   0.624982097232376   1.0000000
B2   B   0.222135751536155   0.110986115298875   0.625170883102414   1.0000000
B2   B   0.722213343732120   0.611161123182373   0.624826038176961   1.0000000
B2   B   0.555505193827079   0.111049279146068   0.624987193698814   1.0000000
B2   B   0.888835687610207   0.111080321816339   0.625130893454845   1.0000000


