data_1
_audit_creation_method   'vasp2cif'
_cell_length_a    14.93631414619966
_cell_length_b    14.936314146199727
_cell_length_c    13.341276283792837
_cell_angle_alpha    90.0
_cell_angle_beta    90.0
_cell_angle_gamma    119.99999999999984

_symmetry_space_group_name_H-M    'P 1'
loop_
_atom_site_label
_atom_site_type_symbol
_atom_site_fract_x
_atom_site_fract_y
_atom_site_fract_z
_atom_site_occupancy
Ga2   Ga   0.478774914370857   0.406054123852093   0.375000000000000   1.0000000
N2   N   0.111109378194013   0.055548145308961   0.124955176148458   1.0000000
N2   N   0.611167765622270   0.555648014842235   0.123883283477920   1.0000000
N2   N   0.444459959049288   0.055547923507390   0.124983197598275   1.0000000
N2   N   0.944452500233446   0.555557906136890   0.125069217628936   1.0000000
N2   N   0.777786226810507   0.055559780071921   0.125010677620641   1.0000000
N2   N   0.111119061742100   0.722226197537715   0.624982219145057   1.0000000
N2   N   0.444459959049288   0.722245368875234   0.625016802401724   1.0000000
N2   N   0.277766136808888   0.222206685628411   0.625188469363527   1.0000000
N2   N   0.777796097435604   0.722245197987503   0.624994817278314   1.0000000
N2   N   0.611129640806736   0.222204297497685   0.625090621696111   1.0000000
N2   N   0.944449096080247   0.222225420671471   0.624999593111720   1.0000000
N2   N   0.277789004209210   0.722231590247781   0.125005042663300   1.0000000
N2   N   0.111110407113822   0.222221870223575   0.124944813824913   1.0000000
N2   N   0.444469353885351   0.222210820383192   0.124781725955195   1.0000000
N2   N   0.611129640806736   0.722258676642379   0.124909378303890   1.0000000
N2   N   0.944452500233446   0.722227927429890   0.125069217628936   1.0000000
N2   N   0.777789486854514   0.222219208708828   0.125057552167062   1.0000000
N2   N   0.111117281109644   0.888889076903457   0.624998944471079   1.0000000
N2   N   0.444457670366746   0.888895501850038   0.625004432335743   1.0000000
N2   N   0.277766136808888   0.388892784513805   0.625188469363527   1.0000000
N2   N   0.611167765622270   0.388853084113364   0.626116716522080   1.0000000
N2   N   0.777789486854514   0.888903611479015   0.624942447832937   1.0000000
N2   N   0.944453012963734   0.388892432644228   0.624952119550391   1.0000000
N2   N   0.111109378194013   0.388894566218380   0.124955176148458   1.0000000
N2   N   0.277789004209210   0.888890747294757   0.125005042663300   1.0000000
N2   N   0.611121747855653   0.888904238196911   0.125034025111038   1.0000000
N2   N   0.444436045278431   0.388884689305880   0.125364885293972   1.0000000
N2   N   0.944453012963734   0.888893913652835   0.125047880449610   1.0000000
N2   N   0.777796097435604   0.388884232781429   0.125005182721686   1.0000000
N2   N   0.277786970112385   0.555568962307684   0.625027910253547   1.0000000
N2   N   0.111109378194013   0.055548145308961   0.625044823851541   1.0000000
N2   N   0.611167765622270   0.555648014842235   0.626116716522080   1.0000000
N2   N   0.444459959049288   0.055547923507390   0.625016802401724   1.0000000
N2   N   0.944452500233446   0.555557906136890   0.624930782371064   1.0000000
N2   N   0.111117281109644   0.555561537539516   0.125001055528921   1.0000000
N2   N   0.777786226810507   0.055559780071921   0.624989322379359   1.0000000
N2   N   0.277786970112385   0.055551341138036   0.124972089746453   1.0000000
N2   N   0.444469353885351   0.555591866835494   0.124781725955195   1.0000000
N2   N   0.777789437277585   0.555561385305460   0.124874703816593   1.0000000
N2   N   0.611121747855653   0.055550842992071   0.125034025111038   1.0000000
N2   N   0.444469353885351   0.555591866835494   0.625218274044804   1.0000000
N2   N   0.944449096080247   0.055557008742111   0.125000406888280   1.0000000
N2   N   0.277789004209210   0.722231590247781   0.624994957336702   1.0000000
N2   N   0.111110407113822   0.222221870223575   0.625055186175087   1.0000000
N2   N   0.444469353885351   0.222210820383192   0.625218274044804   1.0000000
N2   N   0.611129640806736   0.722258676642379   0.625090621696111   1.0000000
N2   N   0.944452500233446   0.722227927429890   0.624930782371064   1.0000000
N2   N   0.777789486854514   0.222219208708828   0.624942447832937   1.0000000
N2   N   0.111119061742100   0.722226197537715   0.125017780854944   1.0000000
N2   N   0.444459959049288   0.722245368875234   0.124983197598275   1.0000000
N2   N   0.277766136808888   0.222206685628411   0.124811530636473   1.0000000
N2   N   0.777796097435604   0.722245197987503   0.125005182721686   1.0000000
N2   N   0.611129640806736   0.222204297497685   0.124909378303890   1.0000000
N2   N   0.944449096080247   0.222225420671471   0.125000406888280   1.0000000
N2   N   0.111109378194013   0.388894566218380   0.625044823851541   1.0000000
N2   N   0.277789004209210   0.888890747294757   0.624994957336702   1.0000000
N2   N   0.611121747855653   0.888904238196911   0.624965974888962   1.0000000
N2   N   0.444436045278431   0.388884689305880   0.624635114706028   1.0000000
N2   N   0.944453012963734   0.888893913652835   0.624952119550391   1.0000000
N2   N   0.111117281109644   0.888889076903457   0.125001055528921   1.0000000
N2   N   0.777796097435604   0.388884232781429   0.624994817278314   1.0000000
N2   N   0.444457670366746   0.888895501850038   0.124995567664257   1.0000000
N2   N   0.277766136808888   0.388892784513805   0.124811530636473   1.0000000
N2   N   0.277786970112385   0.555568962307684   0.124972089746453   1.0000000
N2   N   0.611167765622270   0.388853084113364   0.123883283477920   1.0000000
N2   N   0.777789486854514   0.888903611479015   0.125057552167062   1.0000000
N2   N   0.944453012963734   0.388892432644228   0.125047880449610   1.0000000
N2   N   0.111117281109644   0.555561537539516   0.624998944471079   1.0000000
N2   N   0.277786970112385   0.055551341138036   0.625027910253547   1.0000000
N2   N   0.777789437277585   0.555561385305460   0.625125296183407   1.0000000
N2   N   0.611121747855653   0.055550842992071   0.624965974888962   1.0000000
N2   N   0.944449096080247   0.055557008742111   0.624999593111720   1.0000000
N2   N   0.055643552708924   0.111149252964219   0.375000000000000   1.0000000
N2   N   0.554525997528772   0.610448955271925   0.375000000000000   1.0000000
N2   N   0.387591376097005   0.106290253709046   0.375000000000000   1.0000000
N2   N   0.888751703952688   0.611042518643016   0.375000000000000   1.0000000
N2   N   0.722266044465876   0.111134333972581   0.375000000000000   1.0000000
N2   N   0.055559819165392   0.777780932762983   0.875000000000000   1.0000000
N2   N   0.388892056412512   0.777780416803275   0.875000000000000   1.0000000
N2   N   0.222223665925384   0.277778499629360   0.875000000000000   1.0000000
N2   N   0.722226019789965   0.777777708299554   0.875000000000000   1.0000000
N2   N   0.555555390242136   0.277776188712615   0.875000000000000   1.0000000
N2   N   0.888895811180590   0.277782816062506   0.875000000000000   1.0000000
N2   N   0.221132419882914   0.777232876608125   0.375000000000000   1.0000000
N2   N   0.055643552708924   0.277827633078041   0.375000000000000   1.0000000
N2   N   0.386867121318807   0.268062390429696   0.375000000000000   1.0000000
N2   N   0.555402172591348   0.777954021253316   0.375000000000000   1.0000000
N2   N   0.887918412468050   0.776994426949809   0.375000000000000   1.0000000
N2   N   0.721885099730669   0.277806689654298   0.375000000000000   1.0000000
N2   N   0.055558760239395   0.944446230202709   0.875000000000000   1.0000000
N2   N   0.388892056412512   0.944444972942573   0.875000000000000   1.0000000
N2   N   0.222223253927723   0.444445326189884   0.875000000000000   1.0000000
N2   N   0.555554087726657   0.444443710529993   0.875000000000000   1.0000000
N2   N   0.722224730430011   0.944444917263395   0.875000000000000   1.0000000
N2   N   0.888896420907477   0.444448424363602   0.875000000000000   1.0000000
N2   N   0.054505537535897   0.444355353377162   0.375000000000000   1.0000000
N2   N   0.220891758400940   0.942821919211292   0.375000000000000   1.0000000
N2   N   0.555534821840094   0.944434077586712   0.375000000000000   1.0000000
N2   N   0.386867121318807   0.452138064222446   0.375000000000000   1.0000000
N2   N   0.888634894123031   0.944294109125839   0.375000000000000   1.0000000
N2   N   0.721617229777727   0.445326161932797   0.375000000000000   1.0000000
N2   N   0.222222966061268   0.611111269005291   0.875000000000000   1.0000000
N2   N   0.055558429457858   0.111111376845824   0.875000000000000   1.0000000
N2   N   0.555555390242136   0.611112534862857   0.875000000000000   1.0000000
N2   N   0.388890833747811   0.111110779275832   0.875000000000000   1.0000000
N2   N   0.888898101021280   0.611115717177313   0.875000000000000   1.0000000
N2   N   0.054602068178618   0.610794618837287   0.375000000000000   1.0000000
N2   N   0.722224730430011   0.111113146499952   0.875000000000000   1.0000000
N2   N   0.220950029175332   0.109165509192156   0.375000000000000   1.0000000
N2   N   0.387591376097005   0.614634455721302   0.375000000000000   1.0000000
N2   N   0.721617229777727   0.609624401178266   0.375000000000000   1.0000000
N2   N   0.555402172591348   0.110781484671368   0.375000000000000   1.0000000
N2   N   0.388890833747811   0.611113387805321   0.875000000000000   1.0000000
N2   N   0.888937149867363   0.111135241600353   0.375000000000000   1.0000000
N2   N   0.222224569499951   0.777778951416642   0.875000000000000   1.0000000
N2   N   0.055558429457858   0.277780385945370   0.875000000000000   1.0000000
N2   N   0.388894532418343   0.277781103113660   0.875000000000000   1.0000000
N2   N   0.555556625607602   0.777778850167130   0.875000000000000   1.0000000
N2   N   0.888896420907477   0.777781329877210   0.875000000000000   1.0000000
N2   N   0.722226019789965   0.277781644823746   0.875000000000000   1.0000000
N2   N   0.054602068178618   0.777140782674667   0.375000000000000   1.0000000
N2   N   0.388174167295300   0.778562589667099   0.375000000000000   1.0000000
N2   N   0.223381932693917   0.278357633013626   0.375000000000000   1.0000000
N2   N   0.721885099730669   0.777411743409707   0.375000000000000   1.0000000
N2   N   0.554525997528772   0.277410375590182   0.375000000000000   1.0000000
N2   N   0.888634894123031   0.277674118330527   0.375000000000000   1.0000000
N2   N   0.055558760239395   0.444445863370015   0.875000000000000   1.0000000
N2   N   0.222222966061268   0.944445030389313   0.875000000000000   1.0000000
N2   N   0.555556790637541   0.944445061985436   0.875000000000000   1.0000000
N2   N   0.388894532418343   0.444446762638018   0.875000000000000   1.0000000
N2   N   0.888895811180590   0.944446328451419   0.875000000000000   1.0000000
N2   N   0.054505537535897   0.943483517492064   0.375000000000000   1.0000000
N2   N   0.722229588482807   0.444449769068471   0.875000000000000   1.0000000
N2   N   0.388174167295300   0.942944910961536   0.375000000000000   1.0000000
N2   N   0.220950029175332   0.445117853316512   0.375000000000000   1.0000000
N2   N   0.220891758400940   0.611403172522984   0.375000000000000   1.0000000
N2   N   0.722266044465876   0.944465043826630   0.375000000000000   1.0000000
N2   N   0.887918412468050   0.444257318851576   0.375000000000000   1.0000000
N2   N   0.055559819165392   0.611112219735745   0.875000000000000   1.0000000
N2   N   0.222223253927723   0.111111261071175   0.875000000000000   1.0000000
N2   N   0.722229588482807   0.611113152747672   0.875000000000000   1.0000000
N2   N   0.555556625607602   0.111111108773808   0.875000000000000   1.0000000
N2   N   0.888895378770183   0.111114356051763   0.875000000000000   1.0000000
B2   B   0.110375669055068   0.054687982612167   0.375000000000000   1.0000000
B2   B   0.612538412418239   0.556763631526205   0.375000000000000   1.0000000
B2   B   0.444066465896960   0.053131181858895   0.375000000000000   1.0000000
B2   B   0.943957636956072   0.555316857100830   0.375000000000000   1.0000000
B2   B   0.777930814024891   0.055632073679113   0.375000000000000   1.0000000
B2   B   0.111118582202258   0.722225957767793   0.875000000000000   1.0000000
B2   B   0.444439603618553   0.722214517488667   0.875000000000000   1.0000000
B2   B   0.277781304414298   0.222228250547965   0.875000000000000   1.0000000
B2   B   0.777780824963832   0.722221493980341   0.875000000000000   1.0000000
B2   B   0.611104942608169   0.222223859078853   0.875000000000000   1.0000000
B2   B   0.944457262097090   0.222226804935110   0.875000000000000   1.0000000
B2   B   0.276934150069300   0.722276670372843   0.375000000000000   1.0000000
B2   B   0.112132324743939   0.222732829038634   0.375000000000000   1.0000000
B2   B   0.442200437795977   0.215881108818948   0.375000000000000   1.0000000
B2   B   0.610966860646769   0.722274273543117   0.375000000000000   1.0000000
B2   B   0.943957636956072   0.721974113188579   0.375000000000000   1.0000000
B2   B   0.777691323447867   0.222143264867359   0.375000000000000   1.0000000
B2   B   0.111119319239317   0.888898759079086   0.875000000000000   1.0000000
B2   B   0.444442743147548   0.888888038240438   0.875000000000000   1.0000000
B2   B   0.277781304414298   0.388886387199661   0.875000000000000   1.0000000
B2   B   0.611100119055146   0.388888996923530   0.875000000000000   1.0000000
B2   B   0.777784909574991   0.888892582486602   0.875000000000000   1.0000000
B2   B   0.944454436383757   0.388889901991056   0.875000000000000   1.0000000
B2   B   0.110375669055068   0.389021019776230   0.375000000000000   1.0000000
B2   B   0.276934150069300   0.887990813029785   0.375000000000000   1.0000000
B2   B   0.611218923467566   0.889034080875779   0.375000000000000   1.0000000
B2   B   0.943704224317981   0.888363928090336   0.375000000000000   1.0000000
B2   B   0.777184146354303   0.388653731633782   0.375000000000000   1.0000000
B2   B   0.277779729230411   0.555548895159931   0.875000000000000   1.0000000
B2   B   0.111122791179253   0.055566600016825   0.875000000000000   1.0000000
B2   B   0.611100119055146   0.555544455464946   0.875000000000000   1.0000000
B2   B   0.444439603618553   0.055558419463223   0.875000000000000   1.0000000
B2   B   0.944454635406745   0.555559155639204   0.875000000000000   1.0000000
B2   B   0.110096688870627   0.555400764144955   0.375000000000000   1.0000000
B2   B   0.777786751865975   0.055560042599655   0.875000000000000   1.0000000
B2   B   0.276489711814289   0.053545529496456   0.375000000000000   1.0000000
B2   B   0.442200437795977   0.559652662310364   0.375000000000000   1.0000000
B2   B   0.778614546358246   0.555973939845791   0.375000000000000   1.0000000
B2   B   0.611218923467566   0.055518175925117   0.375000000000000   1.0000000
B2   B   0.444438241662556   0.555546829334193   0.875000000000000   1.0000000
B2   B   0.944638606882584   0.055697666811636   0.375000000000000   1.0000000
B2   B   0.277779891797021   0.722219610734895   0.875000000000000   1.0000000
B2   B   0.111125245104796   0.222229289219062   0.875000000000000   1.0000000
B2   B   0.444438241662556   0.222224745661699   0.875000000000000   1.0000000
B2   B   0.611104942608169   0.722214416862644   0.875000000000000   1.0000000
B2   B   0.944454635406745   0.722228813100875   0.875000000000000   1.0000000
B2   B   0.777784909574991   0.222225660421718   0.875000000000000   1.0000000
B2   B   0.110207875522873   0.721770604428101   0.375000000000000   1.0000000
B2   B   0.444066465896960   0.724268617371400   0.375000000000000   1.0000000
B2   B   0.277906009423373   0.220832110931520   0.375000000000000   1.0000000
B2   B   0.777184146354303   0.721863748053850   0.375000000000000   1.0000000
B2   B   0.610966860646769   0.222025920436981   0.375000000000000   1.0000000
B2   B   0.944638606882584   0.222274273404283   0.375000000000000   1.0000000
B2   B   0.111122791179253   0.388889524495757   0.875000000000000   1.0000000
B2   B   0.277779891797021   0.888893614395454   0.875000000000000   1.0000000
B2   B   0.611110672383565   0.888887401312228   0.875000000000000   1.0000000
B2   B   0.444442405954836   0.388887869644083   0.875000000000000   1.0000000
B2   B   0.944454436383757   0.888897867726030   0.875000000000000   1.0000000
B2   B   0.110096688870627   0.888029258059001   0.375000000000000   1.0000000
B2   B   0.777780824963832   0.388892664316819   0.875000000000000   1.0000000
B2   B   0.444279158241689   0.888806245787508   0.375000000000000   1.0000000
B2   B   0.277906009423373   0.390407231825181   0.375000000000000   1.0000000
B2   B   0.276489711814289   0.556277515651170   0.375000000000000   1.0000000
B2   B   0.612538412418239   0.389108114225362   0.375000000000000   1.0000000
B2   B   0.777691323447867   0.888881391913835   0.375000000000000   1.0000000
B2   B   0.943704224317981   0.388673629560975   0.375000000000000   1.0000000
B2   B   0.111119319239317   0.555553893493560   0.875000000000000   1.0000000
B2   B   0.277779729230411   0.055564167403816   0.875000000000000   1.0000000
B2   B   0.777779600970457   0.555556467151896   0.875000000000000   1.0000000
B2   B   0.611110672383565   0.055556604404666   0.875000000000000   1.0000000
B2   B   0.944457262097090   0.055563790495316   0.875000000000000   1.0000000
B2   B   0.055589736578647   0.111136531736261   0.125002002924883   1.0000000
B2   B   0.555544557754003   0.611124980495436   0.124482723538335   1.0000000
B2   B   0.388885146064782   0.111107480371416   0.124985739579684   1.0000000
B2   B   0.888906362216949   0.611119847775146   0.124982644229352   1.0000000
B2   B   0.722225947499288   0.111099429503536   0.125002024887388   1.0000000
B2   B   0.055590030225765   0.777802931694553   0.624996140402947   1.0000000
B2   B   0.388897212418564   0.777782863283136   0.625004476670179   1.0000000
B2   B   0.222243981885742   0.277788657609539   0.624999791683289   1.0000000
B2   B   0.722222888359990   0.777808318484071   0.625072662224741   1.0000000
B2   B   0.555544557754003   0.277752910591903   0.625517276461666   1.0000000
B2   B   0.888915228545935   0.277773083988719   0.624989636442993   1.0000000
B2   B   0.222247522067319   0.777790427700327   0.124999355510096   1.0000000
B2   B   0.055589736578647   0.277786538175723   0.125002002924883   1.0000000
B2   B   0.388813041467512   0.277675614525661   0.125159742470752   1.0000000
B2   B   0.555546774969496   0.777794972698965   0.124986538797891   1.0000000
B2   B   0.888921245620055   0.777811966776012   0.125000082375170   1.0000000
B2   B   0.722222888359990   0.277747903209254   0.124927337775259   1.0000000
B2   B   0.055589860181905   0.944478623225149   0.624995338966886   1.0000000
B2   B   0.388897212418564   0.944447682468763   0.625004476670179   1.0000000
B2   B   0.222239318610273   0.444441160824091   0.625004095054837   1.0000000
B2   B   0.555657383082111   0.444495358207720   0.625086298127664   1.0000000
B2   B   0.722225947499288   0.944459851329087   0.624997975112612   1.0000000
B2   B   0.888921245620055   0.444442612177380   0.624999917624829   1.0000000
B2   B   0.055589860181905   0.444444570290084   0.125004661033115   1.0000000
B2   B   0.222247711739615   0.944472059413215   0.125006728044992   1.0000000
B2   B   0.555554120113276   0.944443726723303   0.125007724521630   1.0000000
B2   B   0.388813041467512   0.444470760275188   0.125159742470752   1.0000000
B2   B   0.888915228545935   0.944475477890551   0.125010363557006   1.0000000
B2   B   0.722213923563449   0.444421291681753   0.124471682379625   1.0000000
B2   B   0.222247711739615   0.611108985659736   0.624993271955009   1.0000000
B2   B   0.055589736578647   0.111136531736261   0.624997997075117   1.0000000
B2   B   0.555544557754003   0.611124980495436   0.625517276461666   1.0000000
B2   B   0.388885146064782   0.111107480371416   0.625014260420316   1.0000000
B2   B   0.888906362216949   0.611119847775146   0.625017355770648   1.0000000
B2   B   0.055590030225765   0.611120431864548   0.125003859597054   1.0000000
B2   B   0.722225947499288   0.111099429503536   0.624997975112612   1.0000000
B2   B   0.222239318610273   0.111131491119518   0.124995904945163   1.0000000
B2   B   0.388885146064782   0.611110999026710   0.124985739579684   1.0000000
B2   B   0.722213923563449   0.611125965215031   0.124471682379625   1.0000000
B2   B   0.555546774969496   0.111085135603867   0.124986538797891   1.0000000
B2   B   0.388885146064782   0.611110999026710   0.625014260420316   1.0000000
B2   B   0.888912451965068   0.111122892649205   0.125000233845709   1.0000000
B2   B   0.222247522067319   0.777790427700327   0.625000644489904   1.0000000
B2   B   0.055589736578647   0.277786538175723   0.624997997075117   1.0000000
B2   B   0.388813041467512   0.277675614525661   0.624840257529248   1.0000000
B2   B   0.555546774969496   0.777794972698965   0.625013461202109   1.0000000
B2   B   0.888921245620055   0.777811966776012   0.624999917624829   1.0000000
B2   B   0.722222888359990   0.277747903209254   0.625072662224741   1.0000000
B2   B   0.055590030225765   0.777802931694553   0.125003859597054   1.0000000
B2   B   0.388897212418564   0.777782863283136   0.124995523329821   1.0000000
B2   B   0.222243981885742   0.277788657609539   0.125000208316710   1.0000000
B2   B   0.722222888359990   0.777808318484071   0.124927337775259   1.0000000
B2   B   0.555544557754003   0.277752910591903   0.124482723538335   1.0000000
B2   B   0.888915228545935   0.277773083988719   0.125010363557006   1.0000000
B2   B   0.055589860181905   0.444444570290084   0.624995338966886   1.0000000
B2   B   0.222247711739615   0.944472059413215   0.624993271955009   1.0000000
B2   B   0.555554120113276   0.944443726723303   0.624992275478371   1.0000000
B2   B   0.388813041467512   0.444470760275188   0.624840257529248   1.0000000
B2   B   0.888915228545935   0.944475477890551   0.624989636442993   1.0000000
B2   B   0.055589860181905   0.944478623225149   0.125004661033115   1.0000000
B2   B   0.722213923563449   0.444421291681753   0.625528317620376   1.0000000
B2   B   0.388897212418564   0.944447682468763   0.124995523329821   1.0000000
B2   B   0.222239318610273   0.444441160824091   0.124995904945163   1.0000000
B2   B   0.222247711739615   0.611108985659736   0.125006728044992   1.0000000
B2   B   0.555657383082111   0.444495358207720   0.124913701872336   1.0000000
B2   B   0.722225947499288   0.944459851329087   0.125002024887388   1.0000000
B2   B   0.888921245620055   0.444442612177380   0.125000082375170   1.0000000
B2   B   0.055590030225765   0.611120431864548   0.624996140402947   1.0000000
B2   B   0.222239318610273   0.111131491119518   0.625004095054837   1.0000000
B2   B   0.722213923563449   0.611125965215031   0.625528317620376   1.0000000
B2   B   0.555546774969496   0.111085135603867   0.625013461202109   1.0000000
B2   B   0.888912451965068   0.111122892649205   0.624999766154291   1.0000000


