data_1
_audit_creation_method   'vasp2cif'
_cell_length_a    17.52789999999977
_cell_length_b    17.52789999999977
_cell_length_c    15.0
_cell_angle_alpha    90.0
_cell_angle_beta    90.0
_cell_angle_gamma    119.99999999999916

_symmetry_space_group_name_H-M    'P 1'
loop_
_atom_site_label
_atom_site_type_symbol
_atom_site_fract_x
_atom_site_fract_y
_atom_site_fract_z
_atom_site_occupancy
B2   B   0.904079266973407   0.951551034955328   0.111013189730656   1.0000000
B2   B   0.905156370197224   0.094845398673778   0.111044717891889   1.0000000
B2   B   0.905632740320245   0.237794652356774   0.111062731148248   1.0000000
B2   B   0.905749376170641   0.380713179787143   0.111023494269463   1.0000000
B2   B   0.905341863885656   0.523661810030609   0.111026060030514   1.0000000
B2   B   0.904092801922376   0.666345588951243   0.111063956923507   1.0000000
B2   B   0.903249495675568   0.808408825496217   0.111013827006884   1.0000000
B2   B   0.047367650463560   0.952634071692440   0.110980807621767   1.0000000
B2   B   0.048450670811670   0.095922435218595   0.111013190920659   1.0000000
B2   B   0.048811600409450   0.238665227574261   0.111027883767627   1.0000000
B2   B   0.048481925465664   0.381314977278892   0.111035692115013   1.0000000
B2   B   0.047729529184846   0.524166170845828   0.111022293062203   1.0000000
B2   B   0.047020044649981   0.667016236873468   0.111032930025479   1.0000000
B2   B   0.046942029465692   0.809753197817257   0.110992935463454   1.0000000
B2   B   0.190248545202743   0.953059722573313   0.110992931927452   1.0000000
B2   B   0.191592884813785   0.096752247781431   0.111013824945884   1.0000000
B2   B   0.192830578714255   0.240474977792061   0.111018629565156   1.0000000
B2   B   0.191839525802515   0.382407327383414   0.111003848587306   1.0000000
B2   B   0.190228768001604   0.524815529536436   0.111053006781205   1.0000000
B2   B   0.189473851896880   0.667524400851753   0.111061137564039   1.0000000
B2   B   0.189776301923249   0.810225334414750   0.111012728773600   1.0000000
B2   B   0.332985430588533   0.952981596709018   0.111032927142480   1.0000000
B2   B   0.333656162895758   0.095908937826620   0.111063955919510   1.0000000
B2   B   0.335951630692025   0.240690823191489   0.111077008975548   1.0000000
B2   B   0.337293466547728   0.385692363352573   0.111013384748574   1.0000000
B2   B   0.332900117013090   0.527151892353487   0.111013240622606   1.0000000
B2   B   0.331581925223124   0.668419897388875   0.111087960624339   1.0000000
B2   B   0.332477251174240   0.810527832690118   0.111061135782041   1.0000000
B2   B   0.475835473070173   0.952272062266157   0.111022298358205   1.0000000
B2   B   0.476339910390388   0.094659805339344   0.111026074050517   1.0000000
B2   B   0.476900448164678   0.236766829150660   0.111054063410872   1.0000000
B2   B   0.479750735362108   0.378648288143129   0.111065102675950   1.0000000
B2   B   0.472849836635512   0.667101645237906   0.111013240293604   1.0000000
B2   B   0.475186257474565   0.809773061827392   0.111053006756201   1.0000000
B2   B   0.618686767611108   0.951519802258341   0.111035694848016   1.0000000
B2   B   0.619288478249857   0.094252237735360   0.111023501487462   1.0000000
B2   B   0.619899008339792   0.236616159819020   0.111007669403352   1.0000000
B2   B   0.621301542056875   0.378700257222123   0.111013340313068   1.0000000
B2   B   0.621353445921873   0.520250900348893   0.111065102501945   1.0000000
B2   B   0.614309294273429   0.662708131386267   0.111013382334576   1.0000000
B2   B   0.617594397346584   0.808162237810484   0.111003846752308   1.0000000
B2   B   0.761336495027732   0.951190147840550   0.111027886121627   1.0000000
B2   B   0.762207048546225   0.094368948687757   0.111062730652246   1.0000000
B2   B   0.762754189171940   0.237247434059060   0.111040967537018   1.0000000
B2   B   0.763385572560979   0.380102716287205   0.111007662826356   1.0000000
B2   B   0.763235039944341   0.523101323820327   0.111054056176872   1.0000000
B2   B   0.759310965886510   0.664050061864974   0.111077010534543   1.0000000
B2   B   0.759526677876934   0.807171084987746   0.111018630585162   1.0000000
N2   N   0.951488266704752   0.903887937661812   0.110979886491491   1.0000000
N2   N   0.952743647209816   0.047258072919183   0.111014491290501   1.0000000
N2   N   0.953424231586791   0.190375293845658   0.111033160690662   1.0000000
N2   N   0.953322892335177   0.333212935831075   0.111023195728834   1.0000000
N2   N   0.952636728415957   0.476035227893899   0.110991525644215   1.0000000
N2   N   0.951589066482566   0.618826438877151   0.111028584860616   1.0000000
N2   N   0.951175043488062   0.761337315155514   0.111012315940382   1.0000000
N2   N   0.094869275173119   0.905132490399884   0.110961713633224   1.0000000
N2   N   0.096113777257190   0.048513459788245   0.110979896998492   1.0000000
N2   N   0.097355408282459   0.191898966383026   0.110996132266248   1.0000000
N2   N   0.096795977806305   0.334138141001346   0.111001219529175   1.0000000
N2   N   0.095468053007754   0.476599867839780   0.111015939274999   1.0000000
N2   N   0.094507013810930   0.619392919527277   0.111013441331714   1.0000000
N2   N   0.094454640990940   0.762245554497225   0.110988161601710   1.0000000
N2   N   0.237756113129772   0.905547011388058   0.110988160678708   1.0000000
N2   N   0.238664428016485   0.048826733866933   0.111012305733379   1.0000000
N2   N   0.240956669045455   0.193345378809724   0.111028029581467   1.0000000
N2   N   0.242092409686089   0.336854864886689   0.110996298094782   1.0000000
N2   N   0.238683832103776   0.477518198269176   0.111020108352211   1.0000000
N2   N   0.237046090534995   0.619900937581859   0.111066540634099   1.0000000
N2   N   0.237330835797997   0.762670813645003   0.111035146738578   1.0000000
N2   N   0.380608724063721   0.905494609408069   0.111013432047713   1.0000000
N2   N   0.381175266436848   0.048412564369439   0.111028590420620   1.0000000
N2   N   0.382356900029722   0.192176687351907   0.111061680846991   1.0000000
N2   N   0.387123498643837   0.339627166786226   0.111049179230009   1.0000000
N2   N   0.384028319467826   0.482266699141743   0.110909689490734   1.0000000
N2   N   0.379123093114076   0.620878661720921   0.111037439925017   1.0000000
N2   N   0.380100861191140   0.762955768320006   0.111066547516096   1.0000000
N2   N   0.523401908477226   0.904533750055247   0.111015944542998   1.0000000
N2   N   0.523966428927100   0.047364815690042   0.110991543641211   1.0000000
N2   N   0.524586681097111   0.190112893033401   0.111010148165329   1.0000000
N2   N   0.526301655288254   0.333222077089504   0.111016834878306   1.0000000
N2   N   0.474120141361393   0.525881397381607   0.110815009692958   1.0000000
N2   N   0.517734847632259   0.615973180495172   0.110909693023730   1.0000000
N2   N   0.522483538032828   0.761317980979227   0.111020103325213   1.0000000
N2   N   0.665863614224649   0.903205806349701   0.111001218234175   1.0000000
N2   N   0.666788776658921   0.046678782046821   0.111023198439832   1.0000000
N2   N   0.667329072686603   0.189543284068893   0.111005539678940   1.0000000
N2   N   0.667964683970417   0.332037074198582   0.110975937519310   1.0000000
N2   N   0.666779857877498   0.473700119738748   0.111016830035303   1.0000000
N2   N   0.660374628402774   0.612878149506167   0.111049180538012   1.0000000
N2   N   0.663146738492309   0.757909240175918   0.110996293309782   1.0000000
N2   N   0.808102716874973   0.902646299804539   0.110996133939249   1.0000000
N2   N   0.809626475989344   0.046577551575214   0.111033164156661   1.0000000
N2   N   0.810234233263552   0.189767424167448   0.111054780666603   1.0000000
N2   N   0.810458344255108   0.332672570574398   0.111005534162940   1.0000000
N2   N   0.809888832007602   0.475415036937890   0.111010128836328   1.0000000
N2   N   0.807825146197093   0.617644851016277   0.111061680216988   1.0000000
N2   N   0.806656349034277   0.759045024617547   0.111028034333464   1.0000000


