data_1
_audit_creation_method   'vasp2cif'
_cell_length_a    17.52789999999977
_cell_length_b    17.52789999999977
_cell_length_c    15.0
_cell_angle_alpha    90.0
_cell_angle_beta    90.0
_cell_angle_gamma    119.99999999999916

_symmetry_space_group_name_H-M    'P 1'
loop_
_atom_site_label
_atom_site_type_symbol
_atom_site_fract_x
_atom_site_fract_y
_atom_site_fract_z
_atom_site_occupancy
B2   B   0.905940066371655   0.954403860882071   0.111031212904532   1.0000000
B2   B   0.905879645021026   0.096367526607230   0.110815349801879   1.0000000
B2   B   0.905413484512022   0.238291091754685   0.110908510147486   1.0000000
B2   B   0.904482834943563   0.380487644890082   0.110975434084068   1.0000000
B2   B   0.901052408384201   0.522619615437348   0.110432955962231   1.0000000
B2   B   0.900869776304661   0.665254848434912   0.110199333217578   1.0000000
B2   B   0.904246018976795   0.810708530593415   0.110702705916390   1.0000000
B2   B   0.047782912541105   0.953460407009624   0.110687563467091   1.0000000
B2   B   0.048815292671791   0.096422341136175   0.110665968458183   1.0000000
B2   B   0.048578771067013   0.238809775191830   0.110628591895740   1.0000000
B2   B   0.047195641300534   0.381297230757482   0.110883393090118   1.0000000
B2   B   0.044528476697694   0.523663025760904   0.110902415469543   1.0000000
B2   B   0.044100878993949   0.665949001945184   0.110467756205311   1.0000000
B2   B   0.044944697284064   0.808815362309480   0.110347170287076   1.0000000
B2   B   0.188575534906518   0.951643807976193   0.110706024269952   1.0000000
B2   B   0.191937590208184   0.096734686150636   0.110609792806812   1.0000000
B2   B   0.191618843703970   0.238423693865675   0.110243766151710   1.0000000
B2   B   0.190269886361442   0.381652323347870   0.110408230343087   1.0000000
B2   B   0.186943647486993   0.524585296878571   0.111134705088900   1.0000000
B2   B   0.187118333646869   0.666775500397911   0.111154774554634   1.0000000
B2   B   0.187403405677307   0.808848906690307   0.110710814021697   1.0000000
B2   B   0.330771864879231   0.950930815250504   0.111024363758760   1.0000000
B2   B   0.331750173606035   0.093257839647619   0.111530646485917   1.0000000
B2   B   0.337797363814945   0.240808335905833   0.110780032536529   1.0000000
B2   B   0.333332995968918   0.380282417301279   0.110091945021310   1.0000000
B2   B   0.328045916295864   0.526408588298124   0.110714346396201   1.0000000
B2   B   0.330035840780352   0.668302992792391   0.111315740961956   1.0000000
B2   B   0.330329117951569   0.809516813221920   0.110912183912838   1.0000000
B2   B   0.474069581703180   0.951304786955170   0.110787035535181   1.0000000
B2   B   0.474270779474092   0.090985296682700   0.112384678542824   1.0000000
B2   B   0.474416273196797   0.230071106004264   0.112203322239749   1.0000000
B2   B   0.491100852307388   0.380839231811733   0.110767020312468   1.0000000
B2   B   0.473258810534973   0.672860622833063   0.111747272409831   1.0000000
B2   B   0.473967451053163   0.811767111599462   0.110970870789268   1.0000000
B2   B   0.618316687049881   0.953141197325330   0.110525775825736   1.0000000
B2   B   0.618199671446709   0.092631468660329   0.111588568373138   1.0000000
B2   B   0.618149995744711   0.231455229830808   0.113130129964547   1.0000000
B2   B   0.618050286843604   0.367318709170428   0.111310696091261   1.0000000
B2   B   0.621822086829368   0.676132206634125   0.111929639776699   1.0000000
B2   B   0.618804879878281   0.813796479254571   0.111565731527204   1.0000000
B2   B   0.762671951307137   0.954388657593881   0.110940465237674   1.0000000
B2   B   0.762309526932786   0.095341781494555   0.110752915428385   1.0000000
B2   B   0.762120731912026   0.236510942988804   0.111745320230555   1.0000000
B2   B   0.761950424367239   0.378250580081629   0.111706127131711   1.0000000
B2   B   0.756794659928076   0.521571625653526   0.110611632902554   1.0000000
B2   B   0.760473055477821   0.668124247150116   0.110756828350800   1.0000000
B2   B   0.763546733524605   0.813476060904956   0.111473044733389   1.0000000
As2   As   0.485669430466221   0.519223407341847   0.111432474213417   1.0000000
N2   N   0.952606927036646   0.906019357525161   0.110864059255617   1.0000000
N2   N   0.953815734239433   0.049303688507750   0.110880081681945   1.0000000
N2   N   0.953577969850510   0.191423965483259   0.110777148070579   1.0000000
N2   N   0.952392652470194   0.333427084020758   0.110890940720696   1.0000000
N2   N   0.949357003257352   0.475582382232948   0.110632400251215   1.0000000
N2   N   0.948311315946877   0.617674394537336   0.110137912272270   1.0000000
N2   N   0.949428115068602   0.760779073318363   0.110262087717393   1.0000000
N2   N   0.093550850695318   0.904312847419913   0.110517848125397   1.0000000
N2   N   0.096587697714673   0.049187270893625   0.110616109310129   1.0000000
N2   N   0.096820377324490   0.191660683831097   0.110452738349353   1.0000000
N2   N   0.095715495279766   0.334105555756627   0.110633568965317   1.0000000
N2   N   0.092568105526273   0.476394087172236   0.111083174638210   1.0000000
N2   N   0.091911471406078   0.618664444494619   0.110893165242921   1.0000000
N2   N   0.092098326637957   0.761010234135742   0.110427427285333   1.0000000
N2   N   0.235695920437268   0.903870232785990   0.110716929876935   1.0000000
N2   N   0.237220907087948   0.047157195074621   0.110876056391929   1.0000000
N2   N   0.241757145953039   0.193329760023775   0.110374458799721   1.0000000
N2   N   0.239231225549981   0.333752008174969   0.110054446437075   1.0000000
N2   N   0.234690575163674   0.477126760514229   0.110711933099779   1.0000000
N2   N   0.235153415977486   0.619598405214120   0.111356161564501   1.0000000
N2   N   0.235145455830640   0.761608770070319   0.110976299652107   1.0000000
N2   N   0.378758050220802   0.904103026982303   0.110714567490252   1.0000000
N2   N   0.379223619753611   0.045780184925881   0.111720210664438   1.0000000
N2   N   0.380646925237265   0.188732454385838   0.111663621379617   1.0000000
N2   N   0.391138732937033   0.340126140259267   0.110444761885091   1.0000000
N2   N   0.371931406477767   0.475656780307974   0.110096032601831   1.0000000
N2   N   0.378483999738951   0.621187164213056   0.111330404340928   1.0000000
N2   N   0.378574964506780   0.762810813164496   0.111088362330509   1.0000000
N2   N   0.522723914447126   0.905627410565199   0.110421559851775   1.0000000
N2   N   0.522806952507382   0.045442103476249   0.111547134369548   1.0000000
N2   N   0.523087553259618   0.185069715996934   0.113400813309491   1.0000000
N2   N   0.524698118936732   0.323439715983870   0.111050388575867   1.0000000
N2   N   0.590818223038180   0.477617580157985   0.111629474612984   1.0000000
N2   N   0.526143507664967   0.631424805948714   0.112163702988499   1.0000000
N2   N   0.522675892822013   0.766062062884699   0.111547437665258   1.0000000
N2   N   0.667008587464354   0.907399424026920   0.110856809750347   1.0000000
N2   N   0.666867336375713   0.047273092183498   0.110587147935754   1.0000000
N2   N   0.666851913287954   0.186994093427069   0.112528090095993   1.0000000
N2   N   0.667457277782774   0.325983824111128   0.112651252366689   1.0000000
N2   N   0.657160960732584   0.462273474888512   0.110636077995024   1.0000000
N2   N   0.668643372440097   0.631286938185788   0.110858273192905   1.0000000
N2   N   0.668530890292314   0.769029920162143   0.112048221555681   1.0000000
N2   N   0.810955233837328   0.907731811455623   0.111221260991813   1.0000000
N2   N   0.810596403212355   0.048948184571392   0.110697256821932   1.0000000
N2   N   0.810251744580217   0.190263379977202   0.111014893451776   1.0000000
N2   N   0.809616060805843   0.331948951759877   0.111533871701114   1.0000000
N2   N   0.804644245861915   0.473894270700938   0.110714113476069   1.0000000
N2   N   0.804109942029075   0.616259456638956   0.110337780303265   1.0000000
N2   N   0.809267457504272   0.764005044542452   0.110982100075287   1.0000000


