data_1
_audit_creation_method   'vasp2cif'
_cell_length_a    14.93631414619966
_cell_length_b    14.936314146199727
_cell_length_c    13.341276283792837
_cell_angle_alpha    90.0
_cell_angle_beta    90.0
_cell_angle_gamma    119.99999999999984

_symmetry_space_group_name_H-M    'P 1'
loop_
_atom_site_label
_atom_site_type_symbol
_atom_site_fract_x
_atom_site_fract_y
_atom_site_fract_z
_atom_site_occupancy
Sb2   Sb   0.444444444444443   0.388888888888886   0.375000000000000   1.0000000
N2   N   0.111195060994078   0.055654142924769   0.126613150542504   1.0000000
N2   N   0.610960810960395   0.555389366884846   0.121837928096797   1.0000000
N2   N   0.444459081930686   0.055654142924769   0.126613150542504   1.0000000
N2   N   0.944403759944095   0.555527215586190   0.127537070991054   1.0000000
N2   N   0.777777777777779   0.055555555555557   0.126944824920589   1.0000000
N2   N   0.111111111111114   0.722222222222221   0.622199985480874   1.0000000
N2   N   0.444459081930686   0.722138272339251   0.623386849457541   1.0000000
N2   N   0.277943966448449   0.222372522372895   0.628162071903344   1.0000000
N2   N   0.777679190408621   0.722138272339251   0.623386849457541   1.0000000
N2   N   0.611068832622548   0.222264500710837   0.624154012203899   1.0000000
N2   N   0.944459975517459   0.222222121184244   0.623045530020899   1.0000000
N2   N   0.277806117747179   0.722209877691237   0.127537070991054   1.0000000
N2   N   0.111195668088349   0.222264500710837   0.125845987796180   1.0000000
N2   N   0.444428555924459   0.222372522372895   0.121837928096793   1.0000000
N2   N   0.611068832622548   0.722137665245035   0.125845987796180   1.0000000
N2   N   0.944403759944095   0.722209877691237   0.127537070991054   1.0000000
N2   N   0.777762145666778   0.222222121184244   0.126954469979137   1.0000000
N2   N   0.111123455642124   0.888929573389233   0.622462929009108   1.0000000
N2   N   0.444463739797994   0.888898536565704   0.622623371192285   1.0000000
N2   N   0.277943966448449   0.388904777408870   0.628162071903344   1.0000000
N2   N   0.610960810960395   0.388904777408870   0.628162071903344   1.0000000
N2   N   0.777762145666778   0.888873357815870   0.623045530020899   1.0000000
N2   N   0.944434796767625   0.388869593535335   0.622623371192285   1.0000000
N2   N   0.111195060994078   0.388874251402642   0.126613150542504   1.0000000
N2   N   0.277806117747179   0.888929573389233   0.127537070991054   1.0000000
N2   N   0.611111212148996   0.888873357815870   0.126954469979137   1.0000000
N2   N   0.444444444444443   0.388888888888886   0.105177039042781   1.0000000
N2   N   0.944434796767625   0.888898536565704   0.127376628807657   1.0000000
N2   N   0.777679190408621   0.388874251402642   0.126613150542504   1.0000000
N2   N   0.277817273372423   0.555516059961026   0.624137031426311   1.0000000
N2   N   0.111195060994078   0.055654142924769   0.623386849457550   1.0000000
N2   N   0.610960810960395   0.555389366884846   0.628162071903344   1.0000000
N2   N   0.444459081930686   0.055654142924769   0.623386849457550   1.0000000
N2   N   0.944403759944095   0.555527215586190   0.622462929009108   1.0000000
N2   N   0.111123455642124   0.555527215586190   0.127537070991054   1.0000000
N2   N   0.777777777777779   0.055555555555557   0.623055175079361   1.0000000
N2   N   0.277817273372423   0.055634546744809   0.125862968573662   1.0000000
N2   N   0.444428555924459   0.555389366884846   0.121837928096785   1.0000000
N2   N   0.777698786588489   0.555516059961026   0.125862968573662   1.0000000
N2   N   0.611111212148996   0.055571187666566   0.126954469979137   1.0000000
N2   N   0.444428555924459   0.555389366884846   0.628162071903344   1.0000000
N2   N   0.944459975517459   0.055571187666566   0.126954469979137   1.0000000
N2   N   0.277806117747179   0.722209877691237   0.622462929009108   1.0000000
N2   N   0.111195668088349   0.222264500710837   0.624154012203894   1.0000000
N2   N   0.444428555924459   0.222372522372895   0.628162071903344   1.0000000
N2   N   0.611068832622548   0.722137665245035   0.624154012203899   1.0000000
N2   N   0.944403759944095   0.722209877691237   0.622462929009108   1.0000000
N2   N   0.777762145666778   0.222222121184244   0.623045530020899   1.0000000
N2   N   0.111111111111114   0.722222222222221   0.127800014519147   1.0000000
N2   N   0.444459081930686   0.722138272339251   0.126613150542504   1.0000000
N2   N   0.277943966448449   0.222372522372895   0.121837928096790   1.0000000
N2   N   0.777679190408621   0.722138272339251   0.126613150542504   1.0000000
N2   N   0.611068832622548   0.222264500710837   0.125845987796181   1.0000000
N2   N   0.944459975517459   0.222222121184244   0.126954469979137   1.0000000
N2   N   0.111195060994078   0.388874251402642   0.623386849457541   1.0000000
N2   N   0.277806117747179   0.888929573389233   0.622462929009108   1.0000000
N2   N   0.611111212148996   0.888873357815870   0.623045530020899   1.0000000
N2   N   0.444444444444443   0.388888888888886   0.644822960957194   1.0000000
N2   N   0.944434796767625   0.888898536565704   0.622623371192285   1.0000000
N2   N   0.111123455642125   0.888929573389233   0.127537070991054   1.0000000
N2   N   0.777679190408621   0.388874251402642   0.623386849457550   1.0000000
N2   N   0.444463739797994   0.888898536565704   0.127376628807657   1.0000000
N2   N   0.277943966448450   0.388904777408870   0.121837928096788   1.0000000
N2   N   0.277817273372423   0.555516059961026   0.125862968573662   1.0000000
N2   N   0.610960810960395   0.388904777408870   0.121837928096785   1.0000000
N2   N   0.777762145666778   0.888873357815870   0.126954469979137   1.0000000
N2   N   0.944434796767625   0.388869593535335   0.127376628807657   1.0000000
N2   N   0.111123455642124   0.555527215586190   0.622462929009108   1.0000000
N2   N   0.277817273372423   0.055634546744809   0.624137031426311   1.0000000
N2   N   0.777698786588489   0.555516059961026   0.624137031426311   1.0000000
N2   N   0.611111212148996   0.055571187666566   0.623045530020899   1.0000000
N2   N   0.944459975517459   0.055571187666566   0.623045530020899   1.0000000
N2   N   0.054007712443885   0.110132893836022   0.375000000000000   1.0000000
N2   N   0.556086148747765   0.612172297495469   0.375000000000000   1.0000000
N2   N   0.386943585623550   0.100822578304849   0.375000000000000   1.0000000
N2   N   0.892553020395122   0.612943176864208   0.375000000000000   1.0000000
N2   N   0.722511858249629   0.110821475083643   0.375000000000000   1.0000000
N2   N   0.055560649791286   0.777772683542091   0.875000000000000   1.0000000
N2   N   0.388874783505696   0.777782199483220   0.875000000000000   1.0000000
N2   N   0.222217969262849   0.277775651298136   0.875000000000000   1.0000000
N2   N   0.722229648397034   0.777774710390204   0.875000000000000   1.0000000
N2   N   0.555557682035171   0.277775651298136   0.875000000000000   1.0000000
N2   N   0.888894338949282   0.277788677898577   0.875000000000000   1.0000000
N2   N   0.221495185002619   0.777414259167959   0.375000000000000   1.0000000
N2   N   0.054007712443885   0.277208151941190   0.375000000000000   1.0000000
N2   N   0.371472257842601   0.242944515685249   0.375000000000000   1.0000000
N2   N   0.556125181392146   0.779325620889451   0.375000000000000   1.0000000
N2   N   0.891784705375314   0.780073069238434   0.375000000000000   1.0000000
N2   N   0.723200439497336   0.277208151941205   0.375000000000000   1.0000000
N2   N   0.055551133850092   0.944425917355801   0.875000000000000   1.0000000
N2   N   0.388874783505696   0.944425917355801   0.875000000000000   1.0000000
N2   N   0.222196793667197   0.444469220989776   0.875000000000000   1.0000000
N2   N   0.555678207338166   0.444505770335747   0.875000000000000   1.0000000
N2   N   0.722220108928297   0.944440217856516   0.875000000000000   1.0000000
N2   N   0.888907415977528   0.444458549827633   0.875000000000000   1.0000000
N2   N   0.053260264094974   0.445044969470272   0.375000000000000   1.0000000
N2   N   0.220390156469076   0.940780312938207   0.375000000000000   1.0000000
N2   N   0.556024173724423   0.944678753528902   0.375000000000000   1.0000000
N2   N   0.371472257842601   0.461861075490728   0.375000000000000   1.0000000
N2   N   0.888654579804427   0.944678753528902   0.375000000000000   1.0000000
N2   N   0.732510755028449   0.446389747709775   0.375000000000000   1.0000000
N2   N   0.222204028103533   0.611129305229887   0.875000000000000   1.0000000
N2   N   0.055558622943218   0.111103684936251   0.875000000000000   1.0000000
N2   N   0.555557682035171   0.611115364070400   0.875000000000000   1.0000000
N2   N   0.388864112343552   0.111060906010760   0.875000000000000   1.0000000
N2   N   0.888925277126229   0.611129305229887   0.875000000000000   1.0000000
N2   N   0.055919074165358   0.611838148330699   0.375000000000000   1.0000000
N2   N   0.722220108928297   0.111113224405090   0.875000000000000   1.0000000
N2   N   0.213878992681287   0.100822578304849   0.375000000000000   1.0000000
N2   N   0.386943585623554   0.619454340651995   0.375000000000000   1.0000000
N2   N   0.732510755028449   0.619454340651995   0.375000000000000   1.0000000
N2   N   0.556125181392146   0.110132893836022   0.375000000000000   1.0000000
N2   N   0.388864112343552   0.611136539666184   0.875000000000000   1.0000000
N2   N   0.888309616833936   0.110821475083643   0.375000000000000   1.0000000
N2   N   0.222212033750753   0.777772683542099   0.875000000000000   1.0000000
N2   N   0.055558622943218   0.277788271340368   0.875000000000000   1.0000000
N2   N   0.388827562997581   0.277655125995179   0.875000000000000   1.0000000
N2   N   0.555545061993021   0.777774710390204   0.875000000000000   1.0000000
N2   N   0.888907415977528   0.777782199483220   0.875000000000000   1.0000000
N2   N   0.722229648397034   0.277788271340368   0.875000000000000   1.0000000
N2   N   0.055919074165358   0.777414259167959   0.375000000000000   1.0000000
N2   N   0.388288363863056   0.780073069238434   0.375000000000000   1.0000000
N2   N   0.221161035837781   0.277247184585601   0.375000000000000   1.0000000
N2   N   0.723200439497336   0.779325620889451   0.375000000000000   1.0000000
N2   N   0.556086148747765   0.277247184585601   0.375000000000000   1.0000000
N2   N   0.888654579804427   0.277309159608949   0.375000000000000   1.0000000
N2   N   0.055551133850092   0.444458549827633   0.875000000000000   1.0000000
N2   N   0.222204028103533   0.944408056207100   0.875000000000000   1.0000000
N2   N   0.555544655434719   0.944438994384047   0.875000000000000   1.0000000
N2   N   0.388827562997581   0.444505770335747   0.875000000000000   1.0000000
N2   N   0.888894338949282   0.944438994384047   0.875000000000000   1.0000000
N2   N   0.053260264094974   0.941548627958014   0.375000000000000   1.0000000
N2   N   0.722272427322593   0.444469220989776   0.875000000000000   1.0000000
N2   N   0.388288363863056   0.941548627958014   0.375000000000000   1.0000000
N2   N   0.213878992681285   0.446389747709775   0.375000000000000   1.0000000
N2   N   0.220390156469076   0.612943176864208   0.375000000000000   1.0000000
N2   N   0.590388817648127   0.461861075490728   0.375000000000000   1.0000000
N2   N   0.722511858249629   0.945023716499393   0.375000000000000   1.0000000
N2   N   0.891784705375314   0.445044969470272   0.375000000000000   1.0000000
N2   N   0.055560649791286   0.611121299582564   0.875000000000000   1.0000000
N2   N   0.222196793667197   0.111060906010760   0.875000000000000   1.0000000
N2   N   0.722272427322593   0.611136539666184   0.875000000000000   1.0000000
N2   N   0.555545061993021   0.111103684936251   0.875000000000000   1.0000000
N2   N   0.888893115476812   0.111113224405090   0.875000000000000   1.0000000
B2   B   0.105944261240246   0.050714091462982   0.375000000000000   1.0000000
B2   B   0.623481577187857   0.565444384723410   0.375000000000000   1.0000000
B2   B   0.444769830222698   0.050714091462983   0.375000000000000   1.0000000
B2   B   0.946012499096024   0.556016013497730   0.375000000000000   1.0000000
B2   B   0.777777777777779   0.055555555555557   0.375000000000000   1.0000000
B2   B   0.111111111111114   0.722222222222221   0.875000000000000   1.0000000
B2   B   0.444413208139088   0.722156513900204   0.875000000000000   1.0000000
B2   B   0.277901265065774   0.222291693858895   0.875000000000000   1.0000000
B2   B   0.777743305761287   0.722156513900204   0.875000000000000   1.0000000
B2   B   0.611049110616200   0.222284222717092   0.875000000000000   1.0000000
B2   B   0.944493523301555   0.222255725944444   0.875000000000000   1.0000000
B2   B   0.277317319835625   0.723329818931657   0.375000000000000   1.0000000
B2   B   0.110127805967714   0.221730569650533   0.375000000000000   1.0000000
B2   B   0.441962807535498   0.209851756145447   0.375000000000000   1.0000000
B2   B   0.611602763682862   0.723205527365623   0.375000000000000   1.0000000
B2   B   0.946012499096024   0.723329818931657   0.375000000000000   1.0000000
B2   B   0.777883374221947   0.221563569632373   0.375000000000000   1.0000000
B2   B   0.111124970917427   0.888897323491848   0.875000000000000   1.0000000
B2   B   0.444419912129363   0.888876622731350   0.875000000000000   1.0000000
B2   B   0.277901265065774   0.388942904540214   0.875000000000000   1.0000000
B2   B   0.611041639474453   0.388942904540214   0.875000000000000   1.0000000
B2   B   0.777762202642827   0.888839810031774   0.875000000000000   1.0000000
B2   B   0.944456710601979   0.388913421203965   0.875000000000000   1.0000000
B2   B   0.105944261240246   0.388563503110630   0.375000000000000   1.0000000
B2   B   0.277317319835625   0.887320834237305   0.375000000000000   1.0000000
B2   B   0.611769763700984   0.889653137922883   0.375000000000000   1.0000000
B2   B   0.944201558931583   0.889131774401746   0.375000000000000   1.0000000
B2   B   0.782619241870365   0.388563503110630   0.375000000000000   1.0000000
B2   B   0.277796397332527   0.555536936000809   0.875000000000000   1.0000000
B2   B   0.111176819433128   0.055590027572198   0.875000000000000   1.0000000
B2   B   0.611041639474453   0.555432068267637   0.875000000000000   1.0000000
B2   B   0.444413208139088   0.055590027572198   0.875000000000000   1.0000000
B2   B   0.944436009841481   0.555560980758814   0.875000000000000   1.0000000
B2   B   0.110003514401714   0.556016013497730   0.375000000000000   1.0000000
B2   B   0.777777777777779   0.055555555555557   0.875000000000000   1.0000000
B2   B   0.275176462292892   0.050352924585729   0.375000000000000   1.0000000
B2   B   0.441962807535498   0.565444384723410   0.375000000000000   1.0000000
B2   B   0.782980408747552   0.558156871040416   0.375000000000000   1.0000000
B2   B   0.611769763700984   0.055449959111425   0.375000000000000   1.0000000
B2   B   0.444390428793115   0.555432068267637   0.875000000000000   1.0000000
B2   B   0.943680195410445   0.055449959111425   0.375000000000000   1.0000000
B2   B   0.277772352574477   0.722208362415932   0.875000000000000   1.0000000
B2   B   0.111235112100835   0.222284222717092   0.875000000000000   1.0000000
B2   B   0.444390428793115   0.222291693858895   0.875000000000000   1.0000000
B2   B   0.611049110616200   0.722098221232438   0.875000000000000   1.0000000
B2   B   0.944436009841481   0.722208362415932   0.875000000000000   1.0000000
B2   B   0.777762202642827   0.222255725944444   0.875000000000000   1.0000000
B2   B   0.111111111111114   0.722222222222221   0.375000000000000   1.0000000
B2   B   0.444769830222698   0.727389072093025   0.375000000000000   1.0000000
B2   B   0.267888948609985   0.209851756145447   0.375000000000000   1.0000000
B2   B   0.782619241870365   0.727389072093025   0.375000000000000   1.0000000
B2   B   0.611602763682862   0.221730569650533   0.375000000000000   1.0000000
B2   B   0.943680195410445   0.221563569632373   0.375000000000000   1.0000000
B2   B   0.111176819433128   0.388920125194240   0.875000000000000   1.0000000
B2   B   0.277772352574477   0.888897323491848   0.875000000000000   1.0000000
B2   B   0.611077607388988   0.888839810031774   0.875000000000000   1.0000000
B2   B   0.444444444444443   0.388888888888886   0.875000000000000   1.0000000
B2   B   0.944456710601979   0.888876622731350   0.875000000000000   1.0000000
B2   B   0.110003514401714   0.887320834237305   0.375000000000000   1.0000000
B2   B   0.777743305761287   0.388920125194240   0.875000000000000   1.0000000
B2   B   0.444930215470169   0.889131774401746   0.375000000000000   1.0000000
B2   B   0.267888948609985   0.391370525797831   0.375000000000000   1.0000000
B2   B   0.275176462292892   0.558156871040416   0.375000000000000   1.0000000
B2   B   0.623481577187857   0.391370525797831   0.375000000000000   1.0000000
B2   B   0.777883374221947   0.889653137922883   0.375000000000000   1.0000000
B2   B   0.944201558931583   0.388403117863160   0.375000000000000   1.0000000
B2   B   0.111124970917427   0.555560980758814   0.875000000000000   1.0000000
B2   B   0.277796397332527   0.055592794665037   0.875000000000000   1.0000000
B2   B   0.777740538668282   0.555536936000809   0.875000000000000   1.0000000
B2   B   0.611077607388988   0.055571130690557   0.875000000000000   1.0000000
B2   B   0.944493523301555   0.055571130690557   0.875000000000000   1.0000000
B2   B   0.055697585037286   0.111242138924792   0.126678909309392   1.0000000
B2   B   0.555378111601083   0.610756223202028   0.123405199844982   1.0000000
B2   B   0.389006017041554   0.111547918024667   0.125262616617394   1.0000000
B2   B   0.888673781716504   0.611003557524967   0.127275453662368   1.0000000
B2   B   0.722202730028096   0.111130603305226   0.127084538324816   1.0000000
B2   B   0.055523342095017   0.777809991238323   0.622153002729370   1.0000000
B2   B   0.388958538735330   0.777703955576453   0.622562315736156   1.0000000
B2   B   0.222577110131277   0.277955221732322   0.626594800155044   1.0000000
B2   B   0.722091194408527   0.777635748296064   0.623321090690618   1.0000000
B2   B   0.555378111601083   0.277955221732322   0.626594800155061   1.0000000
B2   B   0.888879261431584   0.277758522863096   0.622728015066915   1.0000000
B2   B   0.222286649143311   0.777809991238323   0.127846997270602   1.0000000
B2   B   0.055697585037288   0.277788779445834   0.126678909309392   1.0000000
B2   B   0.389327296293604   0.278654592587126   0.117727712040736   1.0000000
B2   B   0.555544553887503   0.777635748296064   0.126678909309392   1.0000000
B2   B   0.888745416841012   0.777703955576453   0.127437684263843   1.0000000
B2   B   0.722091194408527   0.277788779445834   0.126678909309392   1.0000000
B2   B   0.055629377756972   0.944587916492316   0.622562315736156   1.0000000
B2   B   0.388958538735330   0.944587916492316   0.622562315736156   1.0000000
B2   B   0.222541900983102   0.444327316291775   0.624737383382638   1.0000000
B2   B   0.554678740746120   0.444006037039724   0.632272287959288   1.0000000
B2   B   0.722202730028096   0.944405460056197   0.622915461675192   1.0000000
B2   B   0.888745416841012   0.444374794597999   0.622562315736156   1.0000000
B2   B   0.055629377756972   0.444374794597999   0.127437684263843   1.0000000
B2   B   0.222329775808407   0.944659551616825   0.127275453662368   1.0000000
B2   B   0.555574810470244   0.944454071901744   0.127271984933159   1.0000000
B2   B   0.389327296293604   0.444006037039724   0.117727712040736   1.0000000
B2   B   0.888879261431584   0.944454071901744   0.127271984933159   1.0000000
B2   B   0.721785415308691   0.444327316291775   0.125262616617394   1.0000000
B2   B   0.222329775808390   0.611003557524967   0.622724546337665   1.0000000
B2   B   0.055697585037288   0.111242138924792   0.623321090690618   1.0000000
B2   B   0.555378111601083   0.610756223202028   0.626594800155044   1.0000000
B2   B   0.389006017041554   0.111547918024667   0.624737383382638   1.0000000
B2   B   0.888673781716504   0.611003557524967   0.622724546337665   1.0000000
B2   B   0.055523342095017   0.611046684190037   0.127846997270602   1.0000000
B2   B   0.722202730028096   0.111130603305226   0.622915461675192   1.0000000
B2   B   0.222541900983102   0.111547918024667   0.125262616617394   1.0000000
B2   B   0.389006017041554   0.610791432350167   0.125262616617394   1.0000000
B2   B   0.721785415308691   0.610791432350167   0.125262616617394   1.0000000
B2   B   0.555544553887503   0.111242138924792   0.126678909309392   1.0000000
B2   B   0.389006017041554   0.610791432350167   0.624737383382638   1.0000000
B2   B   0.888927873277132   0.111130603305226   0.127084538324816   1.0000000
B2   B   0.222286649143311   0.777809991238323   0.622153002729370   1.0000000
B2   B   0.055697585037288   0.277788779445834   0.623321090690618   1.0000000
B2   B   0.389327296293604   0.278654592587126   0.632272287959288   1.0000000
B2   B   0.555544553887503   0.777635748296064   0.623321090690618   1.0000000
B2   B   0.888745416841012   0.777703955576453   0.622562315736156   1.0000000
B2   B   0.722091194408527   0.277788779445834   0.623321090690618   1.0000000
B2   B   0.055523342095017   0.777809991238323   0.127846997270602   1.0000000
B2   B   0.388958538735330   0.777703955576453   0.127437684263843   1.0000000
B2   B   0.222577110131277   0.277955221732322   0.123405199844981   1.0000000
B2   B   0.722091194408527   0.777635748296064   0.126678909309392   1.0000000
B2   B   0.555378111601083   0.277955221732322   0.123405199844981   1.0000000
B2   B   0.888879261431584   0.277758522863096   0.127271984933159   1.0000000
B2   B   0.055629377756972   0.444374794597999   0.622562315736156   1.0000000
B2   B   0.222329775808390   0.944659551616825   0.622724546337665   1.0000000
B2   B   0.555574810470244   0.944454071901744   0.622728015066915   1.0000000
B2   B   0.389327296293604   0.444006037039724   0.632272287959288   1.0000000
B2   B   0.888879261431584   0.944454071901744   0.622728015066915   1.0000000
B2   B   0.055629377756972   0.944587916492316   0.127437684263843   1.0000000
B2   B   0.721785415308691   0.444327316291775   0.624737383382638   1.0000000
B2   B   0.388958538735330   0.944587916492316   0.127437684263843   1.0000000
B2   B   0.222541900983102   0.444327316291775   0.125262616617394   1.0000000
B2   B   0.222329775808390   0.611003557524967   0.127275453662368   1.0000000
B2   B   0.554678740746120   0.444006037039724   0.117727712040736   1.0000000
B2   B   0.722202730028096   0.944405460056197   0.127084538324816   1.0000000
B2   B   0.888745416841012   0.444374794597999   0.127437684263843   1.0000000
B2   B   0.055523342095017   0.611046684190037   0.622153002729370   1.0000000
B2   B   0.222541900983102   0.111547918024667   0.624737383382638   1.0000000
B2   B   0.721785415308691   0.610791432350167   0.624737383382638   1.0000000
B2   B   0.555544553887503   0.111242138924792   0.623321090690618   1.0000000
B2   B   0.888927873277132   0.111130603305226   0.622915461675192   1.0000000


