data_1
_audit_creation_method   'vasp2cif'
_cell_length_a    17.52789999999977
_cell_length_b    17.52789999999977
_cell_length_c    15.0
_cell_angle_alpha    90.0
_cell_angle_beta    90.0
_cell_angle_gamma    119.99999999999916

_symmetry_space_group_name_H-M    'P 1'
loop_
_atom_site_label
_atom_site_type_symbol
_atom_site_fract_x
_atom_site_fract_y
_atom_site_fract_z
_atom_site_occupancy
Sb2   Sb   0.471843913942436   0.528153899649876   0.246079538578643   1.0000000
B2   B   0.905033690172300   0.952522474193165   0.103577863009052   1.0000000
B2   B   0.904771874809658   0.095231969149838   0.100461769980674   1.0000000
B2   B   0.904703727750352   0.238116827717132   0.100335380678312   1.0000000
B2   B   0.904768980111787   0.380997765437192   0.102652697792782   1.0000000
B2   B   0.905038883550567   0.523869941446301   0.105773369045453   1.0000000
B2   B   0.905034052056204   0.666800075607151   0.108123828588642   1.0000000
B2   B   0.905082904095488   0.809644791704943   0.108104548191712   1.0000000
B2   B   0.047733544279163   0.952267712471276   0.105439615307423   1.0000000
B2   B   0.047478541519807   0.094967148954365   0.103577036864462   1.0000000
B2   B   0.047414659122198   0.237918062254863   0.102914950607299   1.0000000
B2   B   0.047502703069088   0.380913300003351   0.103645113207665   1.0000000
B2   B   0.047772851560321   0.523786013750785   0.104736986681147   1.0000000
B2   B   0.047911732455125   0.666602719136826   0.105760116627041   1.0000000
B2   B   0.047859013123371   0.809459918940494   0.106390703659944   1.0000000
B2   B   0.190540000164691   0.952141516669556   0.106413476001538   1.0000000
B2   B   0.190357170379062   0.094921480988536   0.108127117087433   1.0000000
B2   B   0.189699083804575   0.237326348339081   0.109546852405555   1.0000000
B2   B   0.189734248002418   0.380478861967901   0.112545511896091   1.0000000
B2   B   0.190383898648413   0.523655674457561   0.110855262718925   1.0000000
B2   B   0.190899708299480   0.666462931812073   0.108266082599861   1.0000000
B2   B   0.190692175240290   0.809306145080597   0.106189292567583   1.0000000
B2   B   0.333396043128189   0.952086720214588   0.105812672814737   1.0000000
B2   B   0.333200909163765   0.094966307990912   0.108176266595199   1.0000000
B2   B   0.332883546228632   0.237760963982700   0.115177385073985   1.0000000
B2   B   0.330177489100608   0.378911994054757   0.131947471820019   1.0000000
B2   B   0.330968565995563   0.522243133486475   0.136124671310814   1.0000000
B2   B   0.333846205217436   0.666156781075673   0.119806081942479   1.0000000
B2   B   0.333536973352438   0.809101063104978   0.108298044107836   1.0000000
B2   B   0.476221046509638   0.952229299014289   0.104811910140643   1.0000000
B2   B   0.476133581918658   0.094960107979137   0.105850594856788   1.0000000
B2   B   0.475879885062276   0.237404650641238   0.109584043866331   1.0000000
B2   B   0.474269972013241   0.379087803549728   0.110237663823683   1.0000000
B2   B   0.477762818262466   0.669036396500595   0.136140764197798   1.0000000
B2   B   0.476351861877603   0.809623633196161   0.110907880991347   1.0000000
B2   B   0.619091275628436   0.952501836223591   0.103711885068358   1.0000000
B2   B   0.619005131784337   0.095231486931557   0.102723469096107   1.0000000
B2   B   0.619004494815576   0.238053186662955   0.105549399468053   1.0000000
B2   B   0.619026822679165   0.380970849922007   0.108000447265562   1.0000000
B2   B   0.620910856352179   0.525731733072373   0.110226181637756   1.0000000
B2   B   0.621089292781439   0.669822948362303   0.131951646273198   1.0000000
B2   B   0.619521842388632   0.810271731091101   0.112586268947621   1.0000000
B2   B   0.762084081510836   0.952589368139930   0.102948377115982   1.0000000
B2   B   0.761883905279269   0.095296889382375   0.100370621284178   1.0000000
B2   B   0.761863702126097   0.238135406092743   0.101926154582133   1.0000000
B2   B   0.761945135166452   0.380993853552757   0.105513001513876   1.0000000
B2   B   0.762601596921180   0.524126909344571   0.109540336071147   1.0000000
B2   B   0.762240857105037   0.667117310007765   0.115149192631849   1.0000000
B2   B   0.762675074125774   0.810302996040395   0.109549868378923   1.0000000
N2   N   0.952566853258842   0.904798658699302   0.105367235034759   1.0000000
N2   N   0.952401838243542   0.047599615155783   0.101836496597047   1.0000000
N2   N   0.952270010116155   0.190433283688960   0.100257041921236   1.0000000
N2   N   0.952300828593053   0.333343681872962   0.101399006727781   1.0000000
N2   N   0.952524251835160   0.476214942554561   0.103973795897668   1.0000000
N2   N   0.952610372495887   0.619091972935121   0.106298100156373   1.0000000
N2   N   0.952658993596440   0.761972936289325   0.107654260042499   1.0000000
N2   N   0.095363412861184   0.904639558180952   0.106089333668749   1.0000000
N2   N   0.095203746456612   0.047433841791247   0.105376020790722   1.0000000
N2   N   0.094801273899251   0.190042634094534   0.104197564105553   1.0000000
N2   N   0.094870686360569   0.333118517247550   0.105197581559085   1.0000000
N2   N   0.095269090373030   0.476131721239165   0.105216385771410   1.0000000
N2   N   0.095572936794142   0.618988156215421   0.105700370854919   1.0000000
N2   N   0.095467547641308   0.761809669920490   0.105956230536647   1.0000000
N2   N   0.238193376351012   0.904536013709980   0.105981835821392   1.0000000
N2   N   0.238028923644302   0.047340182157779   0.107692616781405   1.0000000
N2   N   0.237723361606261   0.190032437003041   0.111709754232243   1.0000000
N2   N   0.236483794180892   0.332029282018951   0.115207667512005   1.0000000
N2   N   0.237472048740365   0.475860896739351   0.116376014904534   1.0000000
N2   N   0.238555644325524   0.618869619342985   0.112808118126654   1.0000000
N2   N   0.238327551272474   0.761676583727265   0.107461367892241   1.0000000
N2   N   0.381010219249531   0.904428922337297   0.105758224074473   1.0000000
N2   N   0.380906897716274   0.047389622174111   0.106361963245758   1.0000000
N2   N   0.380663077581420   0.190228495737363   0.110716182888697   1.0000000
N2   N   0.379924437688541   0.333026764058938   0.122540202184229   1.0000000
N2   N   0.370714929465652   0.469588777293990   0.157896562673971   1.0000000
N2   N   0.381246301598598   0.618751340644315   0.134692028720685   1.0000000
N2   N   0.381130232827924   0.761445304132004   0.112840960506674   1.0000000
N2   N   0.523869264402323   0.904735379207595   0.105286870664923   1.0000000
N2   N   0.523784463627562   0.047474060190032   0.104066924489623   1.0000000
N2   N   0.523745112416987   0.190171894551665   0.107149470248785   1.0000000
N2   N   0.523548977038509   0.332488394199648   0.109602838640829   1.0000000
N2   N   0.529135706604288   0.470866221698731   0.094067562644415   1.0000000
N2   N   0.530413664903568   0.629282359273972   0.157900904236940   1.0000000
N2   N   0.524142141179807   0.762529899823940   0.116419480195092   1.0000000
N2   N   0.666889344737447   0.905134058351524   0.105248852360358   1.0000000
N2   N   0.666662221568896   0.047703879506175   0.101468422048363   1.0000000
N2   N   0.666623568782686   0.190498427084411   0.103125164372795   1.0000000
N2   N   0.666646312046713   0.333355018415597   0.106423953211058   1.0000000
N2   N   0.667509689437281   0.476449424608043   0.109581420252021   1.0000000
N2   N   0.666976507857604   0.620076651827819   0.122526961578257   1.0000000
N2   N   0.667978201935138   0.763519332096566   0.115225982577210   1.0000000
N2   N   0.809959698777278   0.905201218134304   0.104208504480435   1.0000000
N2   N   0.809571089777255   0.047734528173132   0.100283451298451   1.0000000
N2   N   0.809470962783194   0.190535241513659   0.100137479203247   1.0000000
N2   N   0.809503805940216   0.333379280368337   0.103086193702535   1.0000000
N2   N   0.809822679539782   0.476251815417660   0.107088996507730   1.0000000
N2   N   0.809770507148486   0.619335111532167   0.110669448349756   1.0000000
N2   N   0.809966984360374   0.762277300006747   0.111688780738100   1.0000000


