data_1
_audit_creation_method   'vasp2cif'
_cell_length_a    17.52789999999977
_cell_length_b    17.52789999999977
_cell_length_c    15.0
_cell_angle_alpha    90.0
_cell_angle_beta    90.0
_cell_angle_gamma    119.99999999999916

_symmetry_space_group_name_H-M    'P 1'
loop_
_atom_site_label
_atom_site_type_symbol
_atom_site_fract_x
_atom_site_fract_y
_atom_site_fract_z
_atom_site_occupancy
B2   B   0.902613259368046   0.950045592316223   0.103671507891671   1.0000000
B2   B   0.903522995501098   0.093168513907128   0.106399940011780   1.0000000
B2   B   0.904234178768434   0.236370348201597   0.106689576092719   1.0000000
B2   B   0.904574286007495   0.379542480991685   0.105870992801866   1.0000000
B2   B   0.905331101430131   0.522882308555486   0.104100794362546   1.0000000
B2   B   0.905303247391643   0.666120332559800   0.101750364855035   1.0000000
B2   B   0.904002921881924   0.808712596326823   0.099429849834629   1.0000000
B2   B   0.047456252098133   0.952712615890071   0.103266221206970   1.0000000
B2   B   0.047800812551973   0.095603825783568   0.104569758570005   1.0000000
B2   B   0.047743706347645   0.237726437989930   0.104348728834795   1.0000000
B2   B   0.047516474651237   0.380100700382683   0.103146064487811   1.0000000
B2   B   0.047415174199940   0.523126107681257   0.102983962591831   1.0000000
B2   B   0.047579530408309   0.666523138618382   0.103307273701544   1.0000000
B2   B   0.047572976077031   0.809776839363800   0.102728905387008   1.0000000
B2   B   0.190798870139804   0.953455301082502   0.106508176358021   1.0000000
B2   B   0.191408909155875   0.097094107504245   0.106501050113065   1.0000000
B2   B   0.193355543804456   0.241713402572966   0.105826963707894   1.0000000
B2   B   0.191516937424891   0.381887785999604   0.102316530540017   1.0000000
B2   B   0.189918288506644   0.523647440468914   0.101488750578610   1.0000000
B2   B   0.189592979300770   0.666663107144177   0.103943880845539   1.0000000
B2   B   0.190354314735027   0.809989745610628   0.106279198490762   1.0000000
B2   B   0.333450233876670   0.953004874834602   0.111569833191405   1.0000000
B2   B   0.334156062426375   0.096998678695206   0.113042910324459   1.0000000
B2   B   0.335112491281818   0.241568930087381   0.114573921803686   1.0000000
B2   B   0.341020975706404   0.391019033885515   0.109280488289891   1.0000000
B2   B   0.333063385056760   0.525073535437348   0.104468336675298   1.0000000
B2   B   0.331221010161327   0.666765526664047   0.109289750373201   1.0000000
B2   B   0.332844392985011   0.809553943739902   0.111648880960839   1.0000000
B2   B   0.475798124751177   0.950813699151653   0.116116199669900   1.0000000
B2   B   0.476438801408837   0.095243511255398   0.116206642381917   1.0000000
B2   B   0.477178527501036   0.239716815417943   0.123688748301699   1.0000000
B2   B   0.474739774849145   0.381280586028852   0.145753836062048   1.0000000
B2   B   0.491680647635391   0.571685778859739   0.131583673366656   1.0000000
B2   B   0.468821305416217   0.657328280625522   0.136991725531386   1.0000000
B2   B   0.474735742898892   0.805645785703777   0.121791600813910   1.0000000
B2   B   0.617583680897676   0.948667753923343   0.116646258631829   1.0000000
B2   B   0.618636216145321   0.093314952269244   0.115533859088919   1.0000000
B2   B   0.619250151189843   0.237287850169254   0.117921554202664   1.0000000
B2   B   0.620184083857870   0.381099868281579   0.127697533372691   1.0000000
B2   B   0.629256668696108   0.528536294672525   0.136985289935305   1.0000000
B2   B   0.610414857169922   0.653236684952988   0.097156790653394   1.0000000
B2   B   0.614485362349731   0.802070766312196   0.116222252119343   1.0000000
B2   B   0.759090617207010   0.948153856042809   0.109039054322556   1.0000000
B2   B   0.760802771022644   0.092550581840345   0.111306169240468   1.0000000
B2   B   0.761562415093049   0.236275293139512   0.111374378643618   1.0000000
B2   B   0.762052763777124   0.379644898694760   0.111467262046663   1.0000000
B2   B   0.763721202958870   0.522790309111244   0.109797002849791   1.0000000
B2   B   0.762778186190278   0.665344712403227   0.099294411701575   1.0000000
B2   B   0.756777047879158   0.803652529553314   0.100859208434534   1.0000000
N2   N   0.951890397537807   0.904118541231080   0.101856122300984   1.0000000
N2   N   0.951587967931861   0.046144677185663   0.104855273680603   1.0000000
N2   N   0.951839457260460   0.188836601888544   0.105662131615974   1.0000000
N2   N   0.951963122317336   0.331781777034037   0.105044777266575   1.0000000
N2   N   0.952356397083610   0.474938932665097   0.104088383693815   1.0000000
N2   N   0.952752160802871   0.618396711360403   0.102857519413120   1.0000000
N2   N   0.952453361939899   0.761679516701247   0.100574965457581   1.0000000
N2   N   0.095366267255342   0.905305010149317   0.103718814031448   1.0000000
N2   N   0.095638326427725   0.048234673185058   0.104356862211545   1.0000000
N2   N   0.096517584365064   0.191428443087836   0.104766528340112   1.0000000
N2   N   0.095307762221472   0.332831819079874   0.102905763971549   1.0000000
N2   N   0.094480285655972   0.475368717440511   0.102119552942126   1.0000000
N2   N   0.094522678357166   0.618631514660089   0.103179829958767   1.0000000
N2   N   0.095114716029524   0.762099493570687   0.103971307223265   1.0000000
N2   N   0.238112839260442   0.905488752563772   0.108073637230474   1.0000000
N2   N   0.238696531505783   0.048923734553590   0.108131359986488   1.0000000
N2   N   0.239553237880604   0.192545598459508   0.107578725259586   1.0000000
N2   N   0.242163341722624   0.337594411139793   0.104838115058761   1.0000000
N2   N   0.237120955395866   0.476343476233128   0.100835671883409   1.0000000
N2   N   0.236199095969926   0.618985525778549   0.102458812751244   1.0000000
N2   N   0.237488039099099   0.762182432571831   0.106864604898082   1.0000000
N2   N   0.380551875118056   0.904870138933789   0.113448551495278   1.0000000
N2   N   0.381157772950652   0.048356041975838   0.113662665914271   1.0000000
N2   N   0.381826085738590   0.192247766607020   0.118005354663676   1.0000000
N2   N   0.382920566157405   0.336691541064992   0.120437658381330   1.0000000
N2   N   0.388261438035636   0.486882293381763   0.103483801902894   1.0000000
N2   N   0.376753496905982   0.619324190233722   0.113292815402794   1.0000000
N2   N   0.379563299375475   0.761716016788796   0.115206631032443   1.0000000
N2   N   0.522532432807971   0.902011409676907   0.118697762823288   1.0000000
N2   N   0.523458481901885   0.046516430084821   0.116128816065414   1.0000000
N2   N   0.524080028909593   0.190586256994117   0.119166100842652   1.0000000
N2   N   0.524682510349241   0.334553789644817   0.134868179391855   1.0000000
N2   N   0.520258546293406   0.755745364299821   0.130331309585460   1.0000000
N2   N   0.663851703599817   0.899538720971519   0.114146800132944   1.0000000
N2   N   0.665617166674201   0.044802588743300   0.114831585799162   1.0000000
N2   N   0.666397412825285   0.188846229364150   0.114861329503036   1.0000000
N2   N   0.667023654987384   0.332420113137355   0.118669681967962   1.0000000
N2   N   0.670595188703196   0.475830339159259   0.124168960135698   1.0000000
N2   N   0.668989215183723   0.616889665321101   0.102920694040294   1.0000000
N2   N   0.660027390708114   0.752736563561642   0.102247541798263   1.0000000
N2   N   0.806538563929451   0.900541972538105   0.104618029426605   1.0000000
N2   N   0.807909559193794   0.044466507393221   0.108888358360313   1.0000000
N2   N   0.808834251072027   0.188246957957050   0.109653032052566   1.0000000
N2   N   0.809347484262574   0.331598457559546   0.109069250654722   1.0000000
N2   N   0.810646305643608   0.474761969030026   0.106735070914020   1.0000000
N2   N   0.810958361729819   0.618073736847021   0.102875158488433   1.0000000
N2   N   0.808888068489486   0.760381800696988   0.096560010047062   1.0000000
P2   P   0.527007719410024   0.495350292970017   0.200794179426334   1.0000000


