data_1
_audit_creation_method   'vasp2cif'
_cell_length_a    17.52789999999977
_cell_length_b    17.52789999999977
_cell_length_c    15.0
_cell_angle_alpha    90.0
_cell_angle_beta    90.0
_cell_angle_gamma    119.99999999999916

_symmetry_space_group_name_H-M    'P 1'
loop_
_atom_site_label
_atom_site_type_symbol
_atom_site_fract_x
_atom_site_fract_y
_atom_site_fract_z
_atom_site_occupancy
B2   B   0.910690574462749   0.955543159226888   0.110742896699347   1.0000000
B2   B   0.909262912022905   0.096456670733530   0.110817840539683   1.0000000
B2   B   0.908791580196466   0.237913324531833   0.110758377946806   1.0000000
B2   B   0.908986480262166   0.380036368758264   0.110683917259520   1.0000000
B2   B   0.909159925107649   0.522761817818297   0.110719894819006   1.0000000
B2   B   0.909423201080884   0.665796244911900   0.110770187514921   1.0000000
B2   B   0.904881169822789   0.807574433220781   0.110705238138608   1.0000000
B2   B   0.050989369859168   0.954164776171471   0.110682962451774   1.0000000
B2   B   0.053113703411446   0.097958978821896   0.110751567096146   1.0000000
B2   B   0.051745637985553   0.238922353978630   0.110821467501511   1.0000000
B2   B   0.050546247444773   0.380982815432351   0.110710763954072   1.0000000
B2   B   0.049696722716723   0.524243506745359   0.110697233908222   1.0000000
B2   B   0.050009090382905   0.667772550813215   0.110736452098413   1.0000000
B2   B   0.049663982052307   0.810912585552568   0.110737992993202   1.0000000
B2   B   0.193565937708150   0.955364271139231   0.110685350333548   1.0000000
B2   B   0.196811364931752   0.100354294226588   0.110691076637068   1.0000000
B2   B   0.196061963117265   0.241392130932612   0.110743608230291   1.0000000
B2   B   0.192692832051368   0.381525232817999   0.110737264627284   1.0000000
B2   B   0.189627203683698   0.524804680067761   0.110730802752409   1.0000000
B2   B   0.189826638995215   0.668675600331343   0.110762083279397   1.0000000
B2   B   0.192063281063838   0.811947932602170   0.110755816455606   1.0000000
B2   B   0.335500790511409   0.955062343876369   0.110732043850105   1.0000000
B2   B   0.337561569373977   0.099030944523295   0.110730230580403   1.0000000
B2   B   0.344380991063671   0.248012890691777   0.110771978299925   1.0000000
B2   B   0.338203509545847   0.384656212015853   0.110737426103290   1.0000000
B2   B   0.328521433558298   0.525309908381544   0.110746832001337   1.0000000
B2   B   0.328270006992658   0.669415349635220   0.110758553775136   1.0000000
B2   B   0.334047177771873   0.812332511417801   0.110823989296893   1.0000000
B2   B   0.477730933070125   0.953684118832877   0.110729305205102   1.0000000
B2   B   0.479078942977853   0.095747356286886   0.110731713121060   1.0000000
B2   B   0.481207583287269   0.238666923764380   0.110810350433332   1.0000000
B2   B   0.499009793229114   0.395303915447987   0.110855319734684   1.0000000
B2   B   0.463914142387090   0.666974095196445   0.110794539113097   1.0000000
B2   B   0.476493286979539   0.811427589749988   0.110790731043235   1.0000000
B2   B   0.620984375158156   0.955732412740067   0.110745010120206   1.0000000
B2   B   0.621807581421624   0.095039277693193   0.110670016586401   1.0000000
B2   B   0.622911497591629   0.234496641628636   0.110697976082837   1.0000000
B2   B   0.625338736948733   0.372596762622173   0.110877592882481   1.0000000
B2   B   0.613922771268835   0.496961927295989   0.110791717709929   1.0000000
B2   B   0.620735906723439   0.817617236416513   0.110673258263956   1.0000000
B2   B   0.765854965303780   0.955066936915489   0.110754789925893   1.0000000
B2   B   0.765497237394260   0.095748516327687   0.110714276398201   1.0000000
B2   B   0.766000550777970   0.236644649363046   0.110672574468649   1.0000000
B2   B   0.767356517653960   0.377812592832362   0.110694779906777   1.0000000
B2   B   0.767411999745937   0.518631515597654   0.110839787888461   1.0000000
B2   B   0.764487821337372   0.656367642367166   0.110696969264042   1.0000000
B2   B   0.768868359833018   0.815609788277619   0.110623342273325   1.0000000
Sb2   Sb   0.614465195741771   0.657840953161644   0.110878496894881   1.0000000
N2   N   0.955082226020487   0.904737961349687   0.110685167178365   1.0000000
N2   N   0.958105383303661   0.050252552562944   0.110774757768009   1.0000000
N2   N   0.956636284980260   0.191073953188485   0.110828223020653   1.0000000
N2   N   0.955992762185260   0.332677225272968   0.110695904219096   1.0000000
N2   N   0.955704808530934   0.475155631435065   0.110676848191717   1.0000000
N2   N   0.956126997209265   0.618356127906942   0.110718899616800   1.0000000
N2   N   0.954399141610619   0.761592093723502   0.110726795016583   1.0000000
N2   N   0.098172474157862   0.906545100579217   0.110681365247068   1.0000000
N2   N   0.100428065036232   0.050376874131304   0.110665130738316   1.0000000
N2   N   0.100390557784405   0.192603043185737   0.110771542324492   1.0000000
N2   N   0.097771729433598   0.333438307596355   0.110743107779757   1.0000000
N2   N   0.095690322470778   0.476023528150581   0.110681043076314   1.0000000
N2   N   0.095839544198570   0.619678226273640   0.110714021616606   1.0000000
N2   N   0.096998385517701   0.763345625871818   0.110732330698339   1.0000000
N2   N   0.240297101645556   0.907304638974203   0.110698047364041   1.0000000
N2   N   0.242293240423176   0.050880535069444   0.110677563316122   1.0000000
N2   N   0.246414970572958   0.196523208655582   0.110713219900170   1.0000000
N2   N   0.241796760021131   0.335335057788113   0.110712317912268   1.0000000
N2   N   0.235076648840394   0.476046364514462   0.110725910434809   1.0000000
N2   N   0.234437772803363   0.620203382830599   0.110724098488300   1.0000000
N2   N   0.238679977519791   0.764200948482580   0.110784419458602   1.0000000
N2   N   0.382491595422661   0.907351926376273   0.110760211434994   1.0000000
N2   N   0.383903957786839   0.050002334504765   0.110717307420392   1.0000000
N2   N   0.386404062954578   0.194261898589934   0.110757776167718   1.0000000
N2   N   0.396111904267820   0.345814146658539   0.110776360826574   1.0000000
N2   N   0.374063542782377   0.476997593279941   0.110708216833194   1.0000000
N2   N   0.370481286460549   0.620678459436120   0.110746983608823   1.0000000
N2   N   0.380549210215544   0.764981640290839   0.110793179942986   1.0000000
N2   N   0.525378042953211   0.906829641222199   0.110737916454560   1.0000000
N2   N   0.526498020208275   0.048297828930740   0.110684851482649   1.0000000
N2   N   0.527882637374751   0.189781103018061   0.110731919182632   1.0000000
N2   N   0.531077071127710   0.331985569338553   0.110867918400373   1.0000000
N2   N   0.463652403479553   0.520415244388307   0.110696383375826   1.0000000
N2   N   0.491813007150041   0.607498311081737   0.110777480915361   1.0000000
N2   N   0.523778522457375   0.764122881050323   0.110745047571535   1.0000000
N2   N   0.669949311583416   0.911452156132913   0.110756963711507   1.0000000
N2   N   0.670164032516650   0.049541032268399   0.110671784491491   1.0000000
N2   N   0.670920699371161   0.188706330558367   0.110647202993725   1.0000000
N2   N   0.672995641224075   0.327543741877716   0.110710180753226   1.0000000
N2   N   0.673902467315128   0.464733369970656   0.110934848563681   1.0000000
N2   N   0.672896617139889   0.591323355969512   0.110531025085973   1.0000000
N2   N   0.678325131110844   0.784186834212109   0.110462076186642   1.0000000
N2   N   0.816861115581068   0.910155426575950   0.110726853579113   1.0000000
N2   N   0.814047582222447   0.049542310657282   0.110755977952512   1.0000000
N2   N   0.813834351420503   0.190177448874776   0.110695536461802   1.0000000
N2   N   0.814597000136047   0.331182489408264   0.110652177468640   1.0000000
N2   N   0.815332440771516   0.472685944225842   0.110719316240547   1.0000000
N2   N   0.816097884539315   0.614681032949531   0.110803964298282   1.0000000
N2   N   0.808132792062661   0.757226817824793   0.110661558976352   1.0000000


