data_1
_audit_creation_method   'vasp2cif'
_cell_length_a    14.93631414619966
_cell_length_b    14.936314146199727
_cell_length_c    13.341276283792837
_cell_angle_alpha    90.0
_cell_angle_beta    90.0
_cell_angle_gamma    119.99999999999984

_symmetry_space_group_name_H-M    'P 1'
loop_
_atom_site_label
_atom_site_type_symbol
_atom_site_fract_x
_atom_site_fract_y
_atom_site_fract_z
_atom_site_occupancy
S2   S   0.407691976531580   0.370512654932454   0.375000000000000   1.0000000
S2   S   0.553879434681754   0.443606384007541   0.375000000000000   1.0000000
N2   N   0.111223769892497   0.055603179397463   0.125296577567620   1.0000000
N2   N   0.611203836725929   0.555645243744568   0.124479747817675   1.0000000
N2   N   0.444539606575348   0.055577549203557   0.125206810742822   1.0000000
N2   N   0.944516698077782   0.555595652254098   0.125252797024072   1.0000000
N2   N   0.777895498803863   0.055614416068603   0.124982148210461   1.0000000
N2   N   0.111183153877644   0.722258243605487   0.624868355177646   1.0000000
N2   N   0.444539606575348   0.722295390705126   0.624793189257179   1.0000000
N2   N   0.277919561597288   0.222282091775987   0.624790942313968   1.0000000
N2   N   0.777862901054874   0.722276682071164   0.624772128605069   1.0000000
N2   N   0.611209111192554   0.222228743443987   0.624944673404625   1.0000000
N2   N   0.944565757022059   0.222283630764845   0.624914564532336   1.0000000
N2   N   0.277855408332668   0.722268543788787   0.125165110280978   1.0000000
N2   N   0.111250916898999   0.222292125116160   0.125368190022256   1.0000000
N2   N   0.444571836235159   0.222263779133496   0.124862442145967   1.0000000
N2   N   0.611209111192554   0.722313701081903   0.125055326595375   1.0000000
N2   N   0.944516698077782   0.722254379157020   0.125252797024072   1.0000000
N2   N   0.777885923945937   0.222262994845610   0.125033070636824   1.0000000
N2   N   0.111192522522434   0.888921341083457   0.624819356703576   1.0000000
N2   N   0.444532039839537   0.888932686586437   0.624893186150067   1.0000000
N2   N   0.277919561597288   0.388970803154630   0.624790942313968   1.0000000
N2   N   0.611203836725929   0.388891926314697   0.625520252182325   1.0000000
N2   N   0.777885923945937   0.888956262433656   0.624966929363177   1.0000000
N2   N   0.944540900673369   0.388939438838122   0.624856796568709   1.0000000
N2   N   0.111223769892497   0.388953923828364   0.125296577567620   1.0000000
N2   N   0.277855408332668   0.888920197877208   0.125165110280978   1.0000000
N2   N   0.611213539298546   0.888960814881829   0.125029630866773   1.0000000
N2   N   0.444641407709087   0.388987370521204   0.122733282732652   1.0000000
N2   N   0.944540900673369   0.888934795168583   0.125143203431291   1.0000000
N2   N   0.777862901054874   0.388919552317039   0.125227871394931   1.0000000
N2   N   0.277878628246829   0.555622056364111   0.624654296979801   1.0000000
N2   N   0.111223769892497   0.055603179397463   0.624703422432380   1.0000000
N2   N   0.611203836725929   0.555645243744568   0.625520252182325   1.0000000
N2   N   0.444539606575348   0.055577549203557   0.624793189257179   1.0000000
N2   N   0.944516698077782   0.555595652254098   0.624747202975927   1.0000000
N2   N   0.111192522522434   0.555604514772298   0.125180643296425   1.0000000
N2   N   0.777895498803863   0.055614416068603   0.625017851789539   1.0000000
N2   N   0.277878628246829   0.055589905216054   0.125345703020198   1.0000000
N2   N   0.444571836235159   0.555641390434998   0.124862442145967   1.0000000
N2   N   0.777831500907622   0.555582417120476   0.125316080121316   1.0000000
N2   N   0.611213539298546   0.055586057750044   0.125029630866773   1.0000000
N2   N   0.444571836235159   0.555641390434998   0.625137557854033   1.0000000
N2   N   0.944565757022059   0.055615459590550   0.125085435467664   1.0000000
N2   N   0.277855408332668   0.722268543788787   0.624834889719023   1.0000000
N2   N   0.111250916898999   0.222292125116160   0.624631809977744   1.0000000
N2   N   0.444571836235159   0.222263779133496   0.625137557854033   1.0000000
N2   N   0.611209111192554   0.722313701081903   0.624944673404625   1.0000000
N2   N   0.944516698077782   0.722254379157020   0.624747202975927   1.0000000
N2   N   0.777885923945937   0.222262994845610   0.624966929363177   1.0000000
N2   N   0.111183153877644   0.722258243605487   0.125131644822354   1.0000000
N2   N   0.444539606575348   0.722295390705126   0.125206810742822   1.0000000
N2   N   0.277919561597288   0.222282091775987   0.125209057686032   1.0000000
N2   N   0.777862901054874   0.722276682071164   0.125227871394931   1.0000000
N2   N   0.611209111192554   0.222228743443987   0.125055326595375   1.0000000
N2   N   0.944565757022059   0.222283630764845   0.125085435467664   1.0000000
N2   N   0.111223769892497   0.388953923828364   0.624703422432380   1.0000000
N2   N   0.277855408332668   0.888920197877208   0.624834889719023   1.0000000
N2   N   0.611213539298546   0.888960814881829   0.624970369133227   1.0000000
N2   N   0.444641407709087   0.388987370521204   0.627266717267348   1.0000000
N2   N   0.944540900673369   0.888934795168583   0.624856796568709   1.0000000
N2   N   0.111192522522434   0.888921341083457   0.125180643296425   1.0000000
N2   N   0.777862901054874   0.388919552317039   0.624772128605069   1.0000000
N2   N   0.444532039839537   0.888932686586437   0.125106813849932   1.0000000
N2   N   0.277919561597288   0.388970803154630   0.125209057686032   1.0000000
N2   N   0.277878628246829   0.555622056364111   0.125345703020198   1.0000000
N2   N   0.611203836725929   0.388891926314697   0.124479747817675   1.0000000
N2   N   0.777885923945937   0.888956262433656   0.125033070636824   1.0000000
N2   N   0.944540900673369   0.388939438838122   0.125143203431291   1.0000000
N2   N   0.111192522522434   0.555604514772298   0.624819356703576   1.0000000
N2   N   0.277878628246829   0.055589905216054   0.624654296979801   1.0000000
N2   N   0.777831500907622   0.555582417120476   0.624683919878684   1.0000000
N2   N   0.611213539298546   0.055586057750044   0.624970369133227   1.0000000
N2   N   0.944565757022059   0.055615459590550   0.624914564532336   1.0000000
N2   N   0.057653343125791   0.112029243028068   0.375000000000000   1.0000000
N2   N   0.556980252200090   0.622637426442280   0.375000000000000   1.0000000
N2   N   0.387364147589130   0.099605464998166   0.375000000000000   1.0000000
N2   N   0.887454222481559   0.610393777907454   0.375000000000000   1.0000000
N2   N   0.724625279560657   0.111096550480759   0.375000000000000   1.0000000
N2   N   0.055513340076082   0.777758701698666   0.875000000000000   1.0000000
N2   N   0.388853618202518   0.777758831986510   0.875000000000000   1.0000000
N2   N   0.222179082517465   0.277756207925400   0.875000000000000   1.0000000
N2   N   0.722184928783526   0.777757048064171   0.875000000000000   1.0000000
N2   N   0.555515421666647   0.277760313537337   0.875000000000000   1.0000000
N2   N   0.888853562592344   0.277760421777985   0.875000000000000   1.0000000
N2   N   0.220047089058442   0.776690211195892   0.375000000000000   1.0000000
N2   N   0.057653343125791   0.278957433431059   0.375000000000000   1.0000000
N2   N   0.383136473007237   0.250129177526285   0.375000000000000   1.0000000
N2   N   0.556706142797517   0.783487469976570   0.375000000000000   1.0000000
N2   N   0.889801235127979   0.779071633282455   0.375000000000000   1.0000000
N2   N   0.724728828600400   0.275901103673286   0.375000000000000   1.0000000
N2   N   0.055514939449419   0.944425812670583   0.875000000000000   1.0000000
N2   N   0.388853618202518   0.944428119549344   0.875000000000000   1.0000000
N2   N   0.222179104760958   0.444421659974334   0.875000000000000   1.0000000
N2   N   0.555521467596312   0.444427400464817   0.875000000000000   1.0000000
N2   N   0.722185161923592   0.944424815963454   0.875000000000000   1.0000000
N2   N   0.888851508092751   0.444424878685450   0.875000000000000   1.0000000
N2   N   0.054386763244725   0.445243637644549   0.375000000000000   1.0000000
N2   N   0.219946574429777   0.940103791688541   0.375000000000000   1.0000000
N2   N   0.556614747480198   0.944974040406763   0.375000000000000   1.0000000
N2   N   0.383136473007237   0.466340628814287   0.375000000000000   1.0000000
N2   N   0.891030241198136   0.946445846968164   0.375000000000000   1.0000000
N2   N   0.725351125915737   0.442710694800786   0.375000000000000   1.0000000
N2   N   0.222181339295837   0.611087994541824   0.875000000000000   1.0000000
N2   N   0.055515998660352   0.111091142884921   0.875000000000000   1.0000000
N2   N   0.555515421666647   0.611088441462645   0.875000000000000   1.0000000
N2   N   0.388848848960546   0.111094263684535   0.875000000000000   1.0000000
N2   N   0.888849524560025   0.611091428946684   0.875000000000000   1.0000000
N2   N   0.053655517852874   0.610813553964111   0.375000000000000   1.0000000
N2   N   0.722185161923592   0.111093679293474   0.875000000000000   1.0000000
N2   N   0.218326884595513   0.103218862539447   0.375000000000000   1.0000000
N2   N   0.387364147589130   0.621092015924307   0.375000000000000   1.0000000
N2   N   0.725351125915737   0.615973764448288   0.375000000000000   1.0000000
N2   N   0.556706142797517   0.106552006154283   0.375000000000000   1.0000000
N2   N   0.388848848960546   0.611087918609354   0.875000000000000   1.0000000
N2   N   0.891477950026724   0.112405641680034   0.375000000000000   1.0000000
N2   N   0.222182117447423   0.777757725390379   0.875000000000000   1.0000000
N2   N   0.055515998660352   0.277758189108767   0.875000000000000   1.0000000
N2   N   0.388844311948877   0.277752336232476   0.875000000000000   1.0000000
N2   N   0.555517273659023   0.777756181455201   0.875000000000000   1.0000000
N2   N   0.888851508092751   0.777759962740637   0.875000000000000   1.0000000
N2   N   0.722184928783526   0.277761214052689   0.875000000000000   1.0000000
N2   N   0.053655517852874   0.776175297222099   0.375000000000000   1.0000000
N2   N   0.387764335315373   0.780472222860729   0.375000000000000   1.0000000
N2   N   0.225902381882081   0.279617857607705   0.375000000000000   1.0000000
N2   N   0.724728828600400   0.782161058260450   0.375000000000000   1.0000000
N2   N   0.556980252200090   0.267676159091153   0.375000000000000   1.0000000
N2   N   0.891030241198136   0.277917727563308   0.375000000000000   1.0000000
N2   N   0.055514939449419   0.444422460112172   0.875000000000000   1.0000000
N2   N   0.222181339295837   0.944426678087349   0.875000000000000   1.0000000
N2   N   0.555519484071937   0.944426408702633   0.875000000000000   1.0000000
N2   N   0.388844311948877   0.444425309049737   0.875000000000000   1.0000000
N2   N   0.888853562592344   0.944426474147694   0.875000000000000   1.0000000
N2   N   0.054386763244725   0.942476458933504   0.375000000000000   1.0000000
N2   N   0.722184650557202   0.444427045764087   0.875000000000000   1.0000000
N2   N   0.387764335315373   0.940625445787979   0.375000000000000   1.0000000
N2   N   0.218326884595513   0.448441355389401   0.375000000000000   1.0000000
N2   N   0.219946574429777   0.613176116074571   0.375000000000000   1.0000000
N2   N   0.724625279560657   0.946862062413227   0.375000000000000   1.0000000
N2   N   0.889801235127979   0.444062935178860   0.375000000000000   1.0000000
N2   N   0.055513340076082   0.611087971710744   0.875000000000000   1.0000000
N2   N   0.222179104760958   0.111090778119960   0.875000000000000   1.0000000
N2   N   0.722184650557202   0.611090938126451   0.875000000000000   1.0000000
N2   N   0.555517273659023   0.111094425537159   0.875000000000000   1.0000000
N2   N   0.888852742477068   0.111093037905206   0.875000000000000   1.0000000
B2   B   0.108736759821650   0.052175360721365   0.375000000000000   1.0000000
B2   B   0.618710486710154   0.577366121440215   0.375000000000000   1.0000000
B2   B   0.445230342206065   0.048902952930662   0.375000000000000   1.0000000
B2   B   0.943514848105076   0.554998008721710   0.375000000000000   1.0000000
B2   B   0.780786281057548   0.057059807195442   0.375000000000000   1.0000000
B2   B   0.111082109388544   0.722207721360933   0.875000000000000   1.0000000
B2   B   0.444401877181681   0.722215685088583   0.875000000000000   1.0000000
B2   B   0.277708113413541   0.222183563861075   0.875000000000000   1.0000000
B2   B   0.777762108455715   0.722239464004090   0.875000000000000   1.0000000
B2   B   0.611077484732299   0.222178216297138   0.875000000000000   1.0000000
B2   B   0.944403436468430   0.222193648758132   0.875000000000000   1.0000000
B2   B   0.276587744929506   0.723525855244683   0.375000000000000   1.0000000
B2   B   0.113265975960465   0.223299654646897   0.375000000000000   1.0000000
B2   B   0.445442294254892   0.206893727507210   0.375000000000000   1.0000000
B2   B   0.614368199734055   0.732192169502686   0.375000000000000   1.0000000
B2   B   0.943514848105076   0.721850172716701   0.375000000000000   1.0000000
B2   B   0.780715704103678   0.221354060706872   0.375000000000000   1.0000000
B2   B   0.111074459684981   0.888874729222697   0.875000000000000   1.0000000
B2   B   0.444411722754442   0.888872528043882   0.875000000000000   1.0000000
B2   B   0.277708113413541   0.388857882885795   0.875000000000000   1.0000000
B2   B   0.611073432128496   0.388856630582835   0.875000000000000   1.0000000
B2   B   0.777752511958470   0.888898354945380   0.875000000000000   1.0000000
B2   B   0.944415774029255   0.388857237521931   0.875000000000000   1.0000000
B2   B   0.108736759821650   0.389894732433614   0.375000000000000   1.0000000
B2   B   0.276587744929506   0.886395223018152   0.375000000000000   1.0000000
B2   B   0.613776379778340   0.892814951157210   0.375000000000000   1.0000000
B2   B   0.944755789726925   0.889525599360766   0.375000000000000   1.0000000
B2   B   0.780869114004126   0.386791996782222   0.375000000000000   1.0000000
B2   B   0.277723716824505   0.555535988052606   0.875000000000000   1.0000000
B2   B   0.111056876192661   0.055531702172704   0.875000000000000   1.0000000
B2   B   0.611073432128496   0.555550134878990   0.875000000000000   1.0000000
B2   B   0.444401877181681   0.055519525426434   0.875000000000000   1.0000000
B2   B   0.944427718926754   0.555538460822619   0.875000000000000   1.0000000
B2   B   0.109324417228607   0.556116664613271   0.375000000000000   1.0000000
B2   B   0.777746908760115   0.055540121046722   0.875000000000000   1.0000000
B2   B   0.275991723664606   0.049168013405193   0.375000000000000   1.0000000
B2   B   0.445442294254892   0.571881900081018   0.375000000000000   1.0000000
B2   B   0.777883366323778   0.555608349828553   0.375000000000000   1.0000000
B2   B   0.613776379778340   0.054294761954459   0.375000000000000   1.0000000
B2   B   0.444382142085053   0.555539944759339   0.875000000000000   1.0000000
B2   B   0.946807627697234   0.057236812265336   0.375000000000000   1.0000000
B2   B   0.277740902405002   0.722207093768308   0.875000000000000   1.0000000
B2   B   0.111050324517553   0.222191828925445   0.875000000000000   1.0000000
B2   B   0.444382142085053   0.222175530659050   0.875000000000000   1.0000000
B2   B   0.611077484732299   0.722232601768489   0.875000000000000   1.0000000
B2   B   0.944427718926754   0.722222591437471   0.875000000000000   1.0000000
B2   B   0.777752511958470   0.222187490346412   0.875000000000000   1.0000000
B2   B   0.109399663829157   0.721366498581243   0.375000000000000   1.0000000
B2   B   0.445230342206065   0.729660722608738   0.375000000000000   1.0000000
B2   B   0.272936771746801   0.211109156544081   0.375000000000000   1.0000000
B2   B   0.780869114004126   0.727410450555231   0.375000000000000   1.0000000
B2   B   0.614368199734055   0.215509363564698   0.375000000000000   1.0000000
B2   B   0.946807627697234   0.222904148765234   0.375000000000000   1.0000000
B2   B   0.111056876192661   0.388858507353285   0.875000000000000   1.0000000
B2   B   0.277740902405002   0.888867141970023   0.875000000000000   1.0000000
B2   B   0.611080454300790   0.888885545300775   0.875000000000000   1.0000000
B2   B   0.444372705501025   0.388853019417173   0.875000000000000   1.0000000
B2   B   0.944415774029255   0.888891869840660   0.875000000000000   1.0000000
B2   B   0.109324417228607   0.886541085948664   0.375000000000000   1.0000000
B2   B   0.777762108455715   0.388855977784953   0.875000000000000   1.0000000
B2   B   0.445296115448901   0.889314724391111   0.375000000000000   1.0000000
B2   B   0.272936771746801   0.395160948536055   0.375000000000000   1.0000000
B2   B   0.275991723664606   0.560157043592749   0.375000000000000   1.0000000
B2   B   0.618710486710154   0.374677698603267   0.375000000000000   1.0000000
B2   B   0.780715704103678   0.892694976730134   0.375000000000000   1.0000000
B2   B   0.944755789726925   0.388563523699487   0.375000000000000   1.0000000
B2   B   0.111074459684981   0.555533063795606   0.875000000000000   1.0000000
B2   B   0.277723716824505   0.055521062105242   0.875000000000000   1.0000000
B2   B   0.777766335539690   0.555549834436517   0.875000000000000   1.0000000
B2   B   0.611080454300790   0.055528242333351   0.875000000000000   1.0000000
B2   B   0.944403436468430   0.055543121043633   0.875000000000000   1.0000000
B2   B   0.055648492930762   0.111156156507493   0.124999823803538   1.0000000
B2   B   0.555614254623519   0.611294596169785   0.124135902621451   1.0000000
B2   B   0.388941301412187   0.111037636717292   0.124893400565017   1.0000000
B2   B   0.889085544256676   0.611209438795013   0.124927595044691   1.0000000
B2   B   0.722326963371630   0.111118178356692   0.124789645477717   1.0000000
B2   B   0.055690984027236   0.777839545098388   0.625074626593056   1.0000000
B2   B   0.388947780624592   0.777854333165078   0.625062846422516   1.0000000
B2   B   0.222310583406872   0.277821958370101   0.625018879408092   1.0000000
B2   B   0.722353546912135   0.777952037064145   0.625267804880967   1.0000000
B2   B   0.555614254623519   0.277652991787077   0.625864097378550   1.0000000
B2   B   0.889015524047492   0.277806540821141   0.625149112083886   1.0000000
B2   B   0.222306743406120   0.777820038369731   0.124915649725810   1.0000000
B2   B   0.055648492930762   0.277825669756605   0.124999823803538   1.0000000
B2   B   0.388956094053859   0.277780418576975   0.123901471585846   1.0000000
B2   B   0.555626171934107   0.777932613545947   0.124805837777853   1.0000000
B2   B   0.889064183051977   0.777902847691764   0.124901264228868   1.0000000
B2   B   0.722353546912135   0.277734843181325   0.124732195119033   1.0000000
B2   B   0.055664846527342   0.944489123585995   0.625046126207136   1.0000000
B2   B   0.388947780624592   0.944426780792849   0.625062846422516   1.0000000
B2   B   0.222296885574133   0.444526740656723   0.624997480800305   1.0000000
B2   B   0.555616943754777   0.444475138544049   0.627107294658884   1.0000000
B2   B   0.722326963371630   0.944542118348274   0.625210354522283   1.0000000
B2   B   0.889064183051977   0.444494668693549   0.625098735771132   1.0000000
B2   B   0.055664846527342   0.444509056274675   0.124953873792864   1.0000000
B2   B   0.222295899735318   0.944434810688953   0.124977942174311   1.0000000
B2   B   0.555629802141035   0.944481567737182   0.124842552081004   1.0000000
B2   B   0.388956094053859   0.444509008810219   0.123901471585846   1.0000000
B2   B   0.889015524047492   0.944542316559686   0.124850887916114   1.0000000
B2   B   0.722401449593860   0.444465740619687   0.124413394052717   1.0000000
B2   B   0.222295899735318   0.611194422379700   0.625022057825688   1.0000000
B2   B   0.055648492930762   0.111156156507493   0.625000176196462   1.0000000
B2   B   0.555614254623519   0.611294596169785   0.625864097378550   1.0000000
B2   B   0.388941301412187   0.111037636717292   0.625106599434982   1.0000000
B2   B   0.889085544256676   0.611209438795013   0.625072404955310   1.0000000
B2   B   0.055690984027236   0.611184772262190   0.124925373406944   1.0000000
B2   B   0.722326963371630   0.111118178356692   0.625210354522283   1.0000000
B2   B   0.222296885574133   0.111103478250746   0.125002519199694   1.0000000
B2   B   0.388941301412187   0.611236998028237   0.124893400565017   1.0000000
B2   B   0.722401449593860   0.611269042307508   0.124413394052717   1.0000000
B2   B   0.555626171934107   0.111026891721489   0.124805837777853   1.0000000
B2   B   0.388941301412187   0.611236998028237   0.625106599434982   1.0000000
B2   B   0.888999874734056   0.111166604033703   0.124846865515481   1.0000000
B2   B   0.222306743406120   0.777820038369731   0.625084350274190   1.0000000
B2   B   0.055648492930762   0.277825669756605   0.625000176196462   1.0000000
B2   B   0.388956094053859   0.277780418576975   0.626098528414154   1.0000000
B2   B   0.555626171934107   0.777932613545947   0.625194162222147   1.0000000
B2   B   0.889064183051977   0.777902847691764   0.625098735771132   1.0000000
B2   B   0.722353546912135   0.277734843181325   0.625267804880967   1.0000000
B2   B   0.055690984027236   0.777839545098388   0.124925373406944   1.0000000
B2   B   0.388947780624592   0.777854333165078   0.124937153577478   1.0000000
B2   B   0.222310583406872   0.277821958370101   0.124981120591908   1.0000000
B2   B   0.722353546912135   0.777952037064145   0.124732195119033   1.0000000
B2   B   0.555614254623519   0.277652991787077   0.124135902621451   1.0000000
B2   B   0.889015524047492   0.277806540821141   0.124850887916114   1.0000000
B2   B   0.055664846527342   0.444509056274675   0.625046126207136   1.0000000
B2   B   0.222295899735318   0.944434810688953   0.625022057825688   1.0000000
B2   B   0.555629802141035   0.944481567737182   0.625157447918996   1.0000000
B2   B   0.388956094053859   0.444509008810219   0.626098528414154   1.0000000
B2   B   0.889015524047492   0.944542316559686   0.625149112083886   1.0000000
B2   B   0.055664846527342   0.944489123585995   0.124953873792864   1.0000000
B2   B   0.722401449593860   0.444465740619687   0.625586605947283   1.0000000
B2   B   0.388947780624592   0.944426780792849   0.124937153577478   1.0000000
B2   B   0.222296885574133   0.444526740656723   0.125002519199694   1.0000000
B2   B   0.222295899735318   0.611194422379700   0.124977942174311   1.0000000
B2   B   0.555616943754777   0.444475138544049   0.122892705341116   1.0000000
B2   B   0.722326963371630   0.944542118348274   0.124789645477717   1.0000000
B2   B   0.889064183051977   0.444494668693549   0.124901264228868   1.0000000
B2   B   0.055690984027236   0.611184772262190   0.625074626593056   1.0000000
B2   B   0.222296885574133   0.111103478250746   0.624997480800305   1.0000000
B2   B   0.722401449593860   0.611269042307508   0.625586605947283   1.0000000
B2   B   0.555626171934107   0.111026891721489   0.625194162222147   1.0000000
B2   B   0.888999874734056   0.111166604033703   0.625153134484519   1.0000000


