data_1
_audit_creation_method   'vasp2cif'
_cell_length_a    14.93631414619966
_cell_length_b    14.936314146199727
_cell_length_c    13.341276283792837
_cell_angle_alpha    90.0
_cell_angle_beta    90.0
_cell_angle_gamma    119.99999999999984

_symmetry_space_group_name_H-M    'P 1'
loop_
_atom_site_label
_atom_site_type_symbol
_atom_site_fract_x
_atom_site_fract_y
_atom_site_fract_z
_atom_site_occupancy
P2   P   0.467591725842735   0.400462529588032   0.375000000000000   1.0000000
N2   N   0.111089339720331   0.055520337893927   0.125225030402105   1.0000000
N2   N   0.611065442469608   0.555529018224044   0.126803030435879   1.0000000
N2   N   0.444409175962622   0.055520249979841   0.125326401168618   1.0000000
N2   N   0.944437180627372   0.555561799469830   0.125309101340133   1.0000000
N2   N   0.777749225198380   0.055541279265858   0.125150396280426   1.0000000
N2   N   0.111099655689340   0.722216494511334   0.624827042016668   1.0000000
N2   N   0.444409175962622   0.722222259316116   0.624673598831382   1.0000000
N2   N   0.277739809871699   0.222185867436517   0.624554764227966   1.0000000
N2   N   0.777749707243343   0.722188462784341   0.624328481019815   1.0000000
N2   N   0.611066840320092   0.222204442488331   0.624348497259798   1.0000000
N2   N   0.944427895739423   0.222226090616153   0.624831929092762   1.0000000
N2   N   0.277753627784445   0.722221637036970   0.125183550534626   1.0000000
N2   N   0.111095937744484   0.222214635538906   0.125252106897780   1.0000000
N2   N   0.444408462978066   0.222186550785352   0.125825818070757   1.0000000
N2   N   0.611066840320092   0.722195731165091   0.125651502740202   1.0000000
N2   N   0.944437180627372   0.722208714490878   0.125309101340133   1.0000000
N2   N   0.777748552908774   0.222222168475004   0.125226691168442   1.0000000
N2   N   0.111095536040255   0.888861813723579   0.624823731480257   1.0000000
N2   N   0.444410037274590   0.888871685303958   0.624827847106087   1.0000000
N2   N   0.277739809871699   0.388887275768511   0.624554764227966   1.0000000
N2   N   0.611065442469608   0.388869757578892   0.623196969564121   1.0000000
N2   N   0.777748552908774   0.888859717767099   0.624773308831558   1.0000000
N2   N   0.944428603115128   0.388903512828015   0.624801933210178   1.0000000
N2   N   0.111089339720331   0.388902335159733   0.125225030402105   1.0000000
N2   N   0.277753627784445   0.888865324080803   0.125183550534626   1.0000000
N2   N   0.611071961940290   0.888870830573951   0.125184084658529   1.0000000
N2   N   0.444336323130962   0.388834828232145   0.125910510954691   1.0000000
N2   N   0.944428603115128   0.888858423620442   0.125198066789823   1.0000000
N2   N   0.777749707243343   0.388894577792332   0.125671518980184   1.0000000
N2   N   0.277751092359101   0.555566546815255   0.624686218983432   1.0000000
N2   N   0.111089339720331   0.055520337893927   0.624774969597894   1.0000000
N2   N   0.611065442469608   0.555529018224044   0.623196969564121   1.0000000
N2   N   0.444409175962622   0.055520249979841   0.624673598831382   1.0000000
N2   N   0.944437180627372   0.555561799469830   0.624690898659868   1.0000000
N2   N   0.111095536040255   0.555567055650006   0.125176268519742   1.0000000
N2   N   0.777749225198380   0.055541279265858   0.624849603719574   1.0000000
N2   N   0.277751092359101   0.055517878877182   0.125313781016567   1.0000000
N2   N   0.444408462978066   0.555555245526051   0.125825818070757   1.0000000
N2   N   0.777758744683340   0.555546039008337   0.125991744714805   1.0000000
N2   N   0.611071961940290   0.055534464699668   0.125184084658529   1.0000000
N2   N   0.444408462978066   0.555555245526051   0.624174181929243   1.0000000
N2   N   0.944427895739423   0.055535138456606   0.125168070907238   1.0000000
N2   N   0.277753627784445   0.722221637036970   0.624816449465375   1.0000000
N2   N   0.111095937744484   0.222214635538906   0.624747893102220   1.0000000
N2   N   0.444408462978066   0.222186550785352   0.624174181929243   1.0000000
N2   N   0.611066840320092   0.722195731165091   0.624348497259798   1.0000000
N2   N   0.944437180627372   0.722208714490878   0.624690898659868   1.0000000
N2   N   0.777748552908774   0.222222168475004   0.624773308831558   1.0000000
N2   N   0.111099655689340   0.722216494511334   0.125172957983331   1.0000000
N2   N   0.444409175962622   0.722222259316116   0.125326401168618   1.0000000
N2   N   0.277739809871699   0.222185867436517   0.125445235772034   1.0000000
N2   N   0.777749707243343   0.722188462784341   0.125671518980184   1.0000000
N2   N   0.611066840320092   0.222204442488331   0.125651502740202   1.0000000
N2   N   0.944427895739423   0.222226090616153   0.125168070907238   1.0000000
N2   N   0.111089339720331   0.388902335159733   0.624774969597894   1.0000000
N2   N   0.277753627784445   0.888865324080803   0.624816449465375   1.0000000
N2   N   0.611071961940290   0.888870830573951   0.624815915341472   1.0000000
N2   N   0.444336323130962   0.388834828232145   0.624089489045309   1.0000000
N2   N   0.944428603115128   0.888858423620442   0.624801933210178   1.0000000
N2   N   0.111095536040255   0.888861813723579   0.125176268519742   1.0000000
N2   N   0.777749707243343   0.388894577792332   0.624328481019815   1.0000000
N2   N   0.444410037274590   0.888871685303958   0.125172152893914   1.0000000
N2   N   0.277739809871699   0.388887275768511   0.125445235772034   1.0000000
N2   N   0.277751092359101   0.555566546815255   0.125313781016567   1.0000000
N2   N   0.611065442469608   0.388869757578892   0.126803030435879   1.0000000
N2   N   0.777748552908774   0.888859717767099   0.125226691168442   1.0000000
N2   N   0.944428603115128   0.388903512828015   0.125198066789823   1.0000000
N2   N   0.111095536040255   0.555567055650006   0.624823731480257   1.0000000
N2   N   0.277751092359101   0.055517878877182   0.624686218983432   1.0000000
N2   N   0.777758744683340   0.555546039008337   0.624008255285196   1.0000000
N2   N   0.611071961940290   0.055534464699668   0.624815915341472   1.0000000
N2   N   0.944427895739423   0.055535138456606   0.624831929092762   1.0000000
N2   N   0.055997115611113   0.111475204675091   0.375000000000000   1.0000000
N2   N   0.553327149373254   0.612266921341758   0.375000000000000   1.0000000
N2   N   0.387503384488596   0.108061774518065   0.375000000000000   1.0000000
N2   N   0.887617224318585   0.610475278825964   0.375000000000000   1.0000000
N2   N   0.722201721239855   0.110824593632651   0.375000000000000   1.0000000
N2   N   0.055548614074039   0.777778029343257   0.875000000000000   1.0000000
N2   N   0.388897280043084   0.777779305701442   0.875000000000000   1.0000000
N2   N   0.222220228225002   0.277776780779169   0.875000000000000   1.0000000
N2   N   0.722223935046141   0.777780934894419   0.875000000000000   1.0000000
N2   N   0.555559169906501   0.277783763774776   0.875000000000000   1.0000000
N2   N   0.888890713031889   0.277775670220614   0.875000000000000   1.0000000
N2   N   0.220893364815778   0.777113349074556   0.375000000000000   1.0000000
N2   N   0.055997115611113   0.277855244269358   0.375000000000000   1.0000000
N2   N   0.390397767209373   0.275074518776205   0.375000000000000   1.0000000
N2   N   0.554903612296581   0.778641095977843   0.375000000000000   1.0000000
N2   N   0.888149706285838   0.777561021375568   0.375000000000000   1.0000000
N2   N   0.721890550374474   0.277011775910548   0.375000000000000   1.0000000
N2   N   0.055551107192057   0.944447468318379   0.875000000000000   1.0000000
N2   N   0.388897280043084   0.944451307674978   0.875000000000000   1.0000000
N2   N   0.222219797400460   0.444438188137375   0.875000000000000   1.0000000
N2   N   0.555557590864751   0.444445462099040   0.875000000000000   1.0000000
N2   N   0.722226181783474   0.944447760150141   0.875000000000000   1.0000000
N2   N   0.888885263736153   0.444437741082641   0.875000000000000   1.0000000
N2   N   0.055202058860119   0.444090581080477   0.375000000000000   1.0000000
N2   N   0.220950252986056   0.943401800529754   0.375000000000000   1.0000000
N2   N   0.555087991934168   0.944210662633750   0.375000000000000   1.0000000
N2   N   0.390397767209373   0.448656581766503   0.375000000000000   1.0000000
N2   N   0.888908312092673   0.944753418061089   0.375000000000000   1.0000000
N2   N   0.720967806974480   0.444658048907858   0.375000000000000   1.0000000
N2   N   0.222221362331038   0.611104484480450   0.875000000000000   1.0000000
N2   N   0.055553161289662   0.111111418843923   0.875000000000000   1.0000000
N2   N   0.555559169906501   0.611108739465060   0.875000000000000   1.0000000
N2   N   0.388894757797303   0.111120499181958   0.875000000000000   1.0000000
N2   N   0.888880900265030   0.611107116799187   0.875000000000000   1.0000000
N2   N   0.054273470658376   0.610482992059303   0.375000000000000   1.0000000
N2   N   0.722226181783474   0.111111754966669   0.875000000000000   1.0000000
N2   N   0.222630522420205   0.111270278808550   0.375000000000000   1.0000000
N2   N   0.387503384488596   0.612774943303874   0.375000000000000   1.0000000
N2   N   0.720967806974480   0.609643091399958   0.375000000000000   1.0000000
N2   N   0.554903612296581   0.109595849652074   0.375000000000000   1.0000000
N2   N   0.388894757797303   0.611107591948688   0.875000000000000   1.0000000
N2   N   0.889148863194464   0.111241098263903   0.375000000000000   1.0000000
N2   N   0.222222833850560   0.777778083591948   0.875000000000000   1.0000000
N2   N   0.055553161289662   0.277775075779074   0.875000000000000   1.0000000
N2   N   0.388891610767642   0.277781535508562   0.875000000000000   1.0000000
N2   N   0.555562188798753   0.777779763680971   0.875000000000000   1.0000000
N2   N   0.888885263736153   0.777780855986848   0.875000000000000   1.0000000
N2   N   0.722223935046141   0.277776333485058   0.875000000000000   1.0000000
N2   N   0.054273470658376   0.777123811932408   0.375000000000000   1.0000000
N2   N   0.387851446934917   0.777935677026930   0.375000000000000   1.0000000
N2   N   0.223446699127811   0.278390016230573   0.375000000000000   1.0000000
N2   N   0.721890550374474   0.778212107797262   0.375000000000000   1.0000000
N2   N   0.553327149373254   0.274393561364833   0.375000000000000   1.0000000
N2   N   0.888908312092673   0.277488227364920   0.375000000000000   1.0000000
N2   N   0.055551107192057   0.444436972207008   0.875000000000000   1.0000000
N2   N   0.222221362331038   0.944450211183925   0.875000000000000   1.0000000
N2   N   0.555562319048194   0.944447826190761   0.875000000000000   1.0000000
N2   N   0.388891610767642   0.444443408592415   0.875000000000000   1.0000000
N2   N   0.888890713031889   0.944448376144611   0.875000000000000   1.0000000
N2   N   0.055202058860119   0.944444811112971   0.375000000000000   1.0000000
N2   N   0.722217446499653   0.444441112991053   0.875000000000000   1.0000000
N2   N   0.387851446934917   0.943249103241324   0.375000000000000   1.0000000
N2   N   0.222630522420205   0.444693576944991   0.375000000000000   1.0000000
N2   N   0.220950252986056   0.610881785789636   0.375000000000000   1.0000000
N2   N   0.722201721239855   0.944710460940538   0.375000000000000   1.0000000
N2   N   0.888149706285838   0.443922018243606   0.375000000000000   1.0000000
N2   N   0.055548614074039   0.611103918064117   0.875000000000000   1.0000000
N2   N   0.222219797400460   0.111114942596421   0.875000000000000   1.0000000
N2   N   0.722217446499653   0.611109666841937   0.875000000000000   1.0000000
N2   N   0.555562188798753   0.111115758451117   0.875000000000000   1.0000000
N2   N   0.888891545878586   0.111112439605964   0.875000000000000   1.0000000
B2   B   0.110765702167280   0.055480273239924   0.375000000000000   1.0000000
B2   B   0.617155303168310   0.571903446251728   0.375000000000000   1.0000000
B2   B   0.443607713866337   0.053015947780469   0.375000000000000   1.0000000
B2   B   0.944049929555856   0.555079053559949   0.375000000000000   1.0000000
B2   B   0.778239117365016   0.055786225349176   0.375000000000000   1.0000000
B2   B   0.111123031803509   0.722228182568419   0.875000000000000   1.0000000
B2   B   0.444440984483506   0.722257762095700   0.875000000000000   1.0000000
B2   B   0.277703269388672   0.222172692164468   0.875000000000000   1.0000000
B2   B   0.777827959090772   0.722296386204472   0.875000000000000   1.0000000
B2   B   0.611135594763746   0.222173863115654   0.875000000000000   1.0000000
B2   B   0.944439368074895   0.222205787527045   0.875000000000000   1.0000000
B2   B   0.276551382281122   0.722011860152655   0.375000000000000   1.0000000
B2   B   0.111054136423160   0.222193734878245   0.375000000000000   1.0000000
B2   B   0.441965788446652   0.215996267596809   0.375000000000000   1.0000000
B2   B   0.611877863778970   0.726536000852408   0.375000000000000   1.0000000
B2   B   0.944049929555856   0.722304209329243   0.375000000000000   1.0000000
B2   B   0.778348571759542   0.221331703966527   0.375000000000000   1.0000000
B2   B   0.111107174151243   0.888893023472481   0.875000000000000   1.0000000
B2   B   0.444450904798993   0.888892119066161   0.875000000000000   1.0000000
B2   B   0.277703269388672   0.388863910557532   0.875000000000000   1.0000000
B2   B   0.611134210495158   0.388867083456895   0.875000000000000   1.0000000
B2   B   0.777810737158428   0.888950553645645   0.875000000000000   1.0000000
B2   B   0.944462974632823   0.388866723735644   0.875000000000000   1.0000000
B2   B   0.110765702167280   0.388618762260684   0.375000000000000   1.0000000
B2   B   0.276551382281122   0.887872855461797   0.375000000000000   1.0000000
B2   B   0.611355830804754   0.890042091481662   0.375000000000000   1.0000000
B2   B   0.944420603919384   0.889550054526820   0.375000000000000   1.0000000
B2   B   0.778720336817565   0.387214247090227   0.375000000000000   1.0000000
B2   B   0.277739895675784   0.555556349000760   0.875000000000000   1.0000000
B2   B   0.111072661062847   0.055539609559572   0.875000000000000   1.0000000
B2   B   0.611134210495158   0.555600460371590   0.875000000000000   1.0000000
B2   B   0.444440984483506   0.055516555721142   0.875000000000000   1.0000000
B2   B   0.944484552889863   0.555558123791046   0.875000000000000   1.0000000
B2   B   0.109993603778207   0.555085483486959   0.375000000000000   1.0000000
B2   B   0.777799714126447   0.055566523729891   0.875000000000000   1.0000000
B2   B   0.276057767372057   0.053530914712116   0.375000000000000   1.0000000
B2   B   0.441965788446652   0.559302854183177   0.375000000000000   1.0000000
B2   B   0.778855849241677   0.556094591287506   0.375000000000000   1.0000000
B2   B   0.611355830804754   0.054647072656421   0.375000000000000   1.0000000
B2   B   0.444414479704754   0.555582135530259   0.875000000000000   1.0000000
B2   B   0.944735703843861   0.056000429892216   0.375000000000000   1.0000000
B2   B   0.277770855543342   0.722227766146786   0.875000000000000   1.0000000
B2   B   0.111053723150183   0.222193528241756   0.875000000000000   1.0000000
B2   B   0.444414479704754   0.222165677507830   0.875000000000000   1.0000000
B2   B   0.611135594763746   0.722295064981422   0.875000000000000   1.0000000
B2   B   0.944484552889863   0.722259762432153   0.875000000000000   1.0000000
B2   B   0.777810737158428   0.222193516846111   0.875000000000000   1.0000000
B2   B   0.109996966674364   0.721665150003846   0.375000000000000   1.0000000
B2   B   0.443607713866337   0.723925099419203   0.375000000000000   1.0000000
B2   B   0.276631897820196   0.221403503916880   0.375000000000000   1.0000000
B2   B   0.778720336817565   0.724839423060666   0.375000000000000   1.0000000
B2   B   0.611877863778970   0.218675196259892   0.375000000000000   1.0000000
B2   B   0.944735703843861   0.222068607284981   0.375000000000000   1.0000000
B2   B   0.111072661062847   0.388866384836603   0.875000000000000   1.0000000
B2   B   0.277770855543342   0.888876422729883   0.875000000000000   1.0000000
B2   B   0.611134037541083   0.888928443262182   0.875000000000000   1.0000000
B2   B   0.444396837421443   0.388865085377385   0.875000000000000   1.0000000
B2   B   0.944462974632823   0.888929584230509   0.875000000000000   1.0000000
B2   B   0.109993603778207   0.888241453624578   0.375000000000000   1.0000000
B2   B   0.777827959090772   0.388864906219629   0.875000000000000   1.0000000
B2   B   0.443873568469336   0.888603450901332   0.375000000000000   1.0000000
B2   B   0.276631897820196   0.388561727236644   0.375000000000000   1.0000000
B2   B   0.276057767372057   0.555860185993277   0.375000000000000   1.0000000
B2   B   0.617155303168310   0.378585190249910   0.375000000000000   1.0000000
B2   B   0.778348571759542   0.890350201126344   0.375000000000000   1.0000000
B2   B   0.944420603919384   0.388203882725893   0.375000000000000   1.0000000
B2   B   0.111107174151243   0.555547484012089   0.875000000000000   1.0000000
B2   B   0.277739895675784   0.055516880008359   0.875000000000000   1.0000000
B2   B   0.777835437930387   0.555584385631861   0.875000000000000   1.0000000
B2   B   0.611134037541083   0.055538927612229   0.875000000000000   1.0000000
B2   B   0.944439368074895   0.055566913881186   0.875000000000000   1.0000000
B2   B   0.055480986722993   0.111044760664139   0.124768772652333   1.0000000
B2   B   0.555471328395580   0.611279867381798   0.124961461571826   1.0000000
B2   B   0.388720585117598   0.110811960021264   0.124789783248151   1.0000000
B2   B   0.889138703298328   0.611236018315835   0.124805300511134   1.0000000
B2   B   0.722206546056342   0.111046337017475   0.124719409316728   1.0000000
B2   B   0.055661909515142   0.777810794909043   0.625250012290232   1.0000000
B2   B   0.388784006455863   0.777815008741358   0.625242386470249   1.0000000
B2   B   0.222014768698802   0.277674051016069   0.625297493360681   1.0000000
B2   B   0.722288215808423   0.777944049819477   0.625217875190783   1.0000000
B2   B   0.555471328395580   0.277524794347117   0.625038538428174   1.0000000
B2   B   0.888928513192795   0.277771344793438   0.625265041769927   1.0000000
B2   B   0.222201058139439   0.777767195736388   0.124770241148342   1.0000000
B2   B   0.055480986722993   0.277769559392189   0.124768772652333   1.0000000
B2   B   0.388619728206553   0.277480735289259   0.124621697742518   1.0000000
B2   B   0.555471693735844   0.777902905133272   0.124749304120607   1.0000000
B2   B   0.889058579831567   0.777895784601262   0.124762611295630   1.0000000
B2   B   0.722288215808423   0.277677499322283   0.124782124809216   1.0000000
B2   B   0.055563218773635   0.944399241586241   0.625249404375286   1.0000000
B2   B   0.388784006455863   0.944302331047841   0.625242386470249   1.0000000
B2   B   0.222054894060343   0.444492410485526   0.625242459089775   1.0000000
B2   B   0.555498412570746   0.444415872952037   0.624675535389837   1.0000000
B2   B   0.722206546056342   0.944493542372203   0.625280590683273   1.0000000
B2   B   0.889058579831567   0.444496128563643   0.625237388704370   1.0000000
B2   B   0.055563218773635   0.444497310520722   0.124750595624714   1.0000000
B2   B   0.222154213633120   0.944303256874679   0.124767241839005   1.0000000
B2   B   0.555475911349385   0.944404622341356   0.124714968055301   1.0000000
B2   B   0.388619728206553   0.444472326250630   0.124621697742518   1.0000000
B2   B   0.888928513192795   0.944490501732695   0.124734958230073   1.0000000
B2   B   0.722418813530426   0.444478033802998   0.125070150961538   1.0000000
B2   B   0.222154213633120   0.611184290091776   0.625232758160996   1.0000000
B2   B   0.055480986722993   0.111044760664139   0.625231227347667   1.0000000
B2   B   0.555471328395580   0.611279867381798   0.625038538428174   1.0000000
B2   B   0.388720585117598   0.110811960021264   0.625210216751849   1.0000000
B2   B   0.889138703298328   0.611236018315835   0.625194699488866   1.0000000
B2   B   0.055661909515142   0.611184447939434   0.124749987709769   1.0000000
B2   B   0.722206546056342   0.111046337017475   0.625280590683273   1.0000000
B2   B   0.222054894060343   0.110895816908152   0.124757540910225   1.0000000
B2   B   0.388720585117598   0.611241958429678   0.124789783248151   1.0000000
B2   B   0.722418813530426   0.611274113060765   0.125070150961538   1.0000000
B2   B   0.555471693735844   0.110902121935905   0.124749304120607   1.0000000
B2   B   0.388720585117598   0.611241958429678   0.625210216751849   1.0000000
B2   B   0.888876011285014   0.111104672309179   0.124760542185555   1.0000000
B2   B   0.222201058139439   0.777767195736388   0.625229758851658   1.0000000
B2   B   0.055480986722993   0.277769559392189   0.625231227347667   1.0000000
B2   B   0.388619728206553   0.277480735289259   0.625378302257482   1.0000000
B2   B   0.555471693735844   0.777902905133272   0.625250695879394   1.0000000
B2   B   0.889058579831567   0.777895784601262   0.625237388704370   1.0000000
B2   B   0.722288215808423   0.277677499322283   0.625217875190783   1.0000000
B2   B   0.055661909515142   0.777810794909043   0.124749987709769   1.0000000
B2   B   0.388784006455863   0.777815008741358   0.124757613529751   1.0000000
B2   B   0.222014768698802   0.277674051016069   0.124702506639319   1.0000000
B2   B   0.722288215808423   0.777944049819477   0.124782124809216   1.0000000
B2   B   0.555471328395580   0.277524794347117   0.124961461571826   1.0000000
B2   B   0.888928513192795   0.277771344793438   0.124734958230073   1.0000000
B2   B   0.055563218773635   0.444497310520722   0.625249404375286   1.0000000
B2   B   0.222154213633120   0.944303256874679   0.625232758160996   1.0000000
B2   B   0.555475911349385   0.944404622341356   0.625285031944699   1.0000000
B2   B   0.388619728206553   0.444472326250630   0.625378302257482   1.0000000
B2   B   0.888928513192795   0.944490501732695   0.625265041769927   1.0000000
B2   B   0.055563218773635   0.944399241586241   0.124750595624714   1.0000000
B2   B   0.722418813530426   0.444478033802998   0.624929849038461   1.0000000
B2   B   0.388784006455863   0.944302331047841   0.124757613529751   1.0000000
B2   B   0.222054894060343   0.444492410485526   0.124757540910225   1.0000000
B2   B   0.222154213633120   0.611184290091776   0.124767241839005   1.0000000
B2   B   0.555498412570746   0.444415872952037   0.125324464610164   1.0000000
B2   B   0.722206546056342   0.944493542372203   0.124719409316728   1.0000000
B2   B   0.889058579831567   0.444496128563643   0.124762611295630   1.0000000
B2   B   0.055661909515142   0.611184447939434   0.625250012290232   1.0000000
B2   B   0.222054894060343   0.110895816908152   0.625242459089775   1.0000000
B2   B   0.722418813530426   0.611274113060765   0.624929849038461   1.0000000
B2   B   0.555471693735844   0.110902121935905   0.625250695879394   1.0000000
B2   B   0.888876011285014   0.111104672309179   0.625239457814446   1.0000000


