data_1
_audit_creation_method   'vasp2cif'
_cell_length_a    17.52789999999977
_cell_length_b    17.52789999999977
_cell_length_c    15.0
_cell_angle_alpha    90.0
_cell_angle_beta    90.0
_cell_angle_gamma    119.99999999999916

_symmetry_space_group_name_H-M    'P 1'
loop_
_atom_site_label
_atom_site_type_symbol
_atom_site_fract_x
_atom_site_fract_y
_atom_site_fract_z
_atom_site_occupancy
B2   B   0.904546541680398   0.951712397964715   0.106440438431067   1.0000000
B2   B   0.903958514698264   0.093903315684772   0.108226240201836   1.0000000
B2   B   0.903989150019336   0.236710177032070   0.108407465177939   1.0000000
B2   B   0.904171667789980   0.379805070482729   0.107468223779272   1.0000000
B2   B   0.905152024081075   0.523235842820185   0.105651879014019   1.0000000
B2   B   0.906214287640598   0.666779237402587   0.104071733331194   1.0000000
B2   B   0.905970156843119   0.809976941006037   0.103145119237736   1.0000000
B2   B   0.048350008355348   0.953079706534163   0.105822656564946   1.0000000
B2   B   0.048095246519655   0.095759491490735   0.106758387047179   1.0000000
B2   B   0.047230881695127   0.237576264642657   0.107217962260761   1.0000000
B2   B   0.046753957238646   0.380043998485411   0.107079159786895   1.0000000
B2   B   0.046877759964674   0.523221286556170   0.107042503568136   1.0000000
B2   B   0.047853658916212   0.666703363813977   0.106454803178743   1.0000000
B2   B   0.048423394153505   0.810073480464306   0.105414666339271   1.0000000
B2   B   0.191150037661310   0.953228007401541   0.107503817805140   1.0000000
B2   B   0.191269391345386   0.096467544835771   0.106893559938448   1.0000000
B2   B   0.192072620410962   0.240349106856005   0.106630091182099   1.0000000
B2   B   0.189914056931589   0.380951890653235   0.105268013821004   1.0000000
B2   B   0.188649615115722   0.523426156863265   0.105547175915837   1.0000000
B2   B   0.189555182823522   0.666538762610672   0.107735093269040   1.0000000
B2   B   0.190739319181121   0.809874513810619   0.108101570098245   1.0000000
B2   B   0.333669130986776   0.952607930105675   0.109342523350231   1.0000000
B2   B   0.334044634635262   0.096295284512901   0.110275006455090   1.0000000
B2   B   0.334021252435246   0.239868507923997   0.111984288706457   1.0000000
B2   B   0.337133627077279   0.386840847792969   0.112174133548819   1.0000000
B2   B   0.329858238457239   0.523928560966123   0.105410186734724   1.0000000
B2   B   0.331212226512752   0.666378108024352   0.107446866392216   1.0000000
B2   B   0.333138928031893   0.809235286842830   0.109735571038089   1.0000000
B2   B   0.476010691993007   0.950463935832235   0.109943769478051   1.0000000
B2   B   0.476414749831081   0.094831452339566   0.110753373680680   1.0000000
B2   B   0.476804263862093   0.238875553292567   0.118339575350644   1.0000000
B2   B   0.473125964440426   0.378465258588024   0.142556774440462   1.0000000
B2   B   0.475391156387884   0.554932779683678   0.138388565358514   1.0000000
B2   B   0.470170607773439   0.656823810448194   0.125431168191784   1.0000000
B2   B   0.475235354296430   0.805165090352764   0.114390690921363   1.0000000
B2   B   0.617967827481265   0.949483996699904   0.110880628767959   1.0000000
B2   B   0.618595261451290   0.093610260719130   0.109951555955423   1.0000000
B2   B   0.619007416283564   0.237470048240556   0.113237593548371   1.0000000
B2   B   0.619701847125412   0.381197841947983   0.124811161608403   1.0000000
B2   B   0.629189475480503   0.529435226349343   0.137036586617994   1.0000000
B2   B   0.621806362693695   0.663835457149769   0.105554372142683   1.0000000
B2   B   0.616338761898322   0.804762471115487   0.113184021680387   1.0000000
B2   B   0.760396456599522   0.949792674440043   0.108883748460901   1.0000000
B2   B   0.760948828388368   0.093239453975152   0.109409790160731   1.0000000
B2   B   0.761344451045883   0.236660957794881   0.109482159578497   1.0000000
B2   B   0.761770777946529   0.380032904089560   0.110218814512081   1.0000000
B2   B   0.763789478054696   0.523513136660725   0.110489726667381   1.0000000
B2   B   0.765274223670215   0.667354805980747   0.103107148521740   1.0000000
B2   B   0.761361567736227   0.807647973073908   0.104607682430990   1.0000000
N2   N   0.953084520926077   0.905052032432068   0.105068074693842   1.0000000
N2   N   0.952382202375993   0.047146103185948   0.107318623016647   1.0000000
N2   N   0.951717904379180   0.189251906387004   0.108172357314223   1.0000000
N2   N   0.951497493600020   0.332016974202609   0.107779180682168   1.0000000
N2   N   0.951934645013954   0.475179151506517   0.106536244395456   1.0000000
N2   N   0.953016203591386   0.618690927010321   0.104954874974960   1.0000000
N2   N   0.953402891212098   0.762200088524282   0.103534708029323   1.0000000
N2   N   0.095933691919143   0.905425288422736   0.106069644353714   1.0000000
N2   N   0.095897695989198   0.048347055094773   0.106339374350966   1.0000000
N2   N   0.096036764793335   0.191227506795724   0.106734014291147   1.0000000
N2   N   0.094463971561099   0.332600838821391   0.106552620979327   1.0000000
N2   N   0.093717817591965   0.475305907368845   0.106953060341201   1.0000000
N2   N   0.094553777077890   0.618640447915763   0.107515698251296   1.0000000
N2   N   0.095594109639931   0.762131776899723   0.106795870140533   1.0000000
N2   N   0.238450178709662   0.905235525767207   0.108515991529863   1.0000000
N2   N   0.238759541556796   0.048583164810133   0.107948033845870   1.0000000
N2   N   0.238875240544256   0.191805324139742   0.106920385594252   1.0000000
N2   N   0.240239508208981   0.336077972339305   0.106390265453474   1.0000000
N2   N   0.235364587660253   0.475572548438277   0.103739300355072   1.0000000
N2   N   0.236081241032693   0.618629902889146   0.106276015554219   1.0000000
N2   N   0.237811566562943   0.761923902901050   0.108714299401426   1.0000000
N2   N   0.380848233528557   0.904420766056397   0.109678884108236   1.0000000
N2   N   0.381234189918052   0.047929612266859   0.110022823359780   1.0000000
N2   N   0.381519088197360   0.191611914969570   0.113632314598183   1.0000000
N2   N   0.381277903938011   0.335031592038675   0.118798974486226   1.0000000
N2   N   0.383354474147846   0.483342814045471   0.110483134674659   1.0000000
N2   N   0.376928801399913   0.618434356507008   0.107639365984657   1.0000000
N2   N   0.380081033051117   0.761188078813491   0.110924286896667   1.0000000
N2   N   0.522861060641161   0.901501928433232   0.111207323127094   1.0000000
N2   N   0.523469345930702   0.046194948248368   0.109698517206385   1.0000000
N2   N   0.523884475270819   0.190280037150793   0.113448832215610   1.0000000
N2   N   0.524036417032281   0.333814618687600   0.129819932689357   1.0000000
N2   N   0.521329662144715   0.754874791234620   0.121193893323560   1.0000000
N2   N   0.664875431910648   0.901018322112939   0.110843129633734   1.0000000
N2   N   0.665704404765249   0.045304985626866   0.109823540243077   1.0000000
N2   N   0.666164084629137   0.189150523375658   0.110401110801058   1.0000000
N2   N   0.666580445109066   0.332835681487791   0.115541567803122   1.0000000
N2   N   0.669955805100649   0.476621427290834   0.123576615231684   1.0000000
N2   N   0.670916355417800   0.619383503284583   0.107479875807103   1.0000000
N2   N   0.665051006232329   0.758100653941547   0.105860611771287   1.0000000
N2   N   0.808891957000934   0.903061394829652   0.107032221966840   1.0000000
N2   N   0.808447521696119   0.045488307159652   0.108951129094328   1.0000000
N2   N   0.808685422475405   0.188739865008088   0.109126563258698   1.0000000
N2   N   0.808970443866464   0.332001312230164   0.108491766245742   1.0000000
N2   N   0.810294420749439   0.475298676458686   0.106985192681943   1.0000000
N2   N   0.811667160663591   0.618906846304084   0.105171226067968   1.0000000
N2   N   0.810944298626464   0.762104356899305   0.101509681502467   1.0000000
P2   P   0.524823334085234   0.491183743515692   0.198864957100048   1.0000000


