data_1
_audit_creation_method   'vasp2cif'
_cell_length_a    17.52789999999977
_cell_length_b    17.52789999999977
_cell_length_c    15.0
_cell_angle_alpha    90.0
_cell_angle_beta    90.0
_cell_angle_gamma    119.99999999999916

_symmetry_space_group_name_H-M    'P 1'
loop_
_atom_site_label
_atom_site_type_symbol
_atom_site_fract_x
_atom_site_fract_y
_atom_site_fract_z
_atom_site_occupancy
O2   O   0.370033270037003   0.468389399859951   0.109062105880413   1.0000000
B2   B   0.909312985256877   0.955239801650586   0.110524014553231   1.0000000
B2   B   0.906197556280201   0.096236764294167   0.110685155781502   1.0000000
B2   B   0.904807203556248   0.238683218420554   0.110930427266242   1.0000000
B2   B   0.904306224056747   0.381678172647043   0.110868733399451   1.0000000
B2   B   0.904673239664172   0.524772335601539   0.110641302378545   1.0000000
B2   B   0.909308791139437   0.668515608168949   0.110437686838521   1.0000000
B2   B   0.911844655712092   0.813691484718846   0.110450069274765   1.0000000
B2   B   0.051947361165937   0.954045736282934   0.110804131666818   1.0000000
B2   B   0.049601736199498   0.095811918255080   0.111040220817098   1.0000000
B2   B   0.047505579677912   0.237731267184636   0.111081598106153   1.0000000
B2   B   0.047024567922164   0.380662517851746   0.110983622378531   1.0000000
B2   B   0.047914944861583   0.523720120964245   0.110746716513861   1.0000000
B2   B   0.050763270474900   0.666865963401497   0.110597190937759   1.0000000
B2   B   0.051977995109521   0.810475044290330   0.110640002547838   1.0000000
B2   B   0.193707876936663   0.952243992565307   0.111143640447398   1.0000000
B2   B   0.192516779287972   0.095021491595959   0.111420019546652   1.0000000
B2   B   0.190009846594767   0.236515859340693   0.110853218954529   1.0000000
B2   B   0.188797667452292   0.378936787263689   0.110710389300837   1.0000000
B2   B   0.190275401214759   0.522500935061343   0.110987347008600   1.0000000
B2   B   0.193591905262778   0.665579370155951   0.110773206842400   1.0000000
B2   B   0.194011552028768   0.808908905339618   0.110780579061052   1.0000000
B2   B   0.336105778922732   0.951183627421556   0.111283565761475   1.0000000
B2   B   0.335066603361004   0.094559048137313   0.111545168925820   1.0000000
B2   B   0.333232553816558   0.237196309611580   0.110676375371084   1.0000000
B2   B   0.330330971280172   0.378965169505027   0.108151426090625   1.0000000
B2   B   0.330809761824554   0.518205112380890   0.110577794909791   1.0000000
B2   B   0.337274080350216   0.663144988253709   0.111254919683153   1.0000000
B2   B   0.336725598452805   0.807264696189099   0.110966671944230   1.0000000
B2   B   0.478583144579254   0.950285439141581   0.111132626471322   1.0000000
B2   B   0.477772987219812   0.094352669631334   0.111665509869491   1.0000000
B2   B   0.476362459700755   0.237120627171852   0.111832271878874   1.0000000
B2   B   0.472467259847831   0.375672393192138   0.095179429138828   1.0000000
B2   B   0.481124733440552   0.657488897236611   0.112545450949398   1.0000000
B2   B   0.479600311636147   0.805143024174888   0.111360805148349   1.0000000
B2   B   0.621065514258208   0.952334091051524   0.110926605935455   1.0000000
B2   B   0.620201944763593   0.095729607789788   0.111161161279609   1.0000000
B2   B   0.619401946765745   0.239852912424511   0.111365871703168   1.0000000
B2   B   0.617470740243942   0.384409872525295   0.109804499356775   1.0000000
B2   B   0.621697568888785   0.539141039009632   0.110819200503439   1.0000000
B2   B   0.633068861426886   0.676204432817282   0.112255380460018   1.0000000
B2   B   0.622969147929486   0.810395794110900   0.111327702208012   1.0000000
B2   B   0.764727970987606   0.954098479460714   0.110690747202452   1.0000000
B2   B   0.762912524633789   0.096152506632535   0.110771707762414   1.0000000
B2   B   0.762019973084892   0.239314553372656   0.111072907437308   1.0000000
B2   B   0.761208551456709   0.382865187308157   0.110935768415867   1.0000000
B2   B   0.760508443560914   0.526659794498921   0.110450087349447   1.0000000
B2   B   0.772935201257802   0.674247932808535   0.110592851779898   1.0000000
B2   B   0.769745990435792   0.814971282704764   0.110633690254278   1.0000000
N2   N   0.957586428538111   0.908045199920998   0.110445420344998   1.0000000
N2   N   0.954947220126127   0.049524814061434   0.110616705025588   1.0000000
N2   N   0.952621623155461   0.191037629492546   0.110898481170211   1.0000000
N2   N   0.951906344434560   0.333789754107376   0.110911303602019   1.0000000
N2   N   0.952277549798079   0.476850372075998   0.110702284669359   1.0000000
N2   N   0.955414575782030   0.619951489288824   0.110548240721094   1.0000000
N2   N   0.957267916129498   0.763877829369080   0.110480754854687   1.0000000
N2   N   0.098941020372478   0.905535286204441   0.110834868464547   1.0000000
N2   N   0.097893266175485   0.048582188770203   0.111125769990115   1.0000000
N2   N   0.095466279145525   0.190249302869022   0.111227691420173   1.0000000
N2   N   0.094157094576235   0.332530407004967   0.111055889167486   1.0000000
N2   N   0.095072409180688   0.475771035998723   0.110908778682781   1.0000000
N2   N   0.097907940432710   0.618845553183400   0.110635509883442   1.0000000
N2   N   0.098902744675475   0.762060414261481   0.110597394688266   1.0000000
N2   N   0.241134568939124   0.904087905799750   0.111064383443251   1.0000000
N2   N   0.240235755964958   0.047247112827487   0.111421238603269   1.0000000
N2   N   0.238507188092243   0.189678004663538   0.111401128153603   1.0000000
N2   N   0.235827310191472   0.330838039188275   0.110144656923698   1.0000000
N2   N   0.236250199437547   0.473952379805382   0.110788548664032   1.0000000
N2   N   0.241191544342562   0.617535851243907   0.111002092610595   1.0000000
N2   N   0.241482246433201   0.760725425330808   0.110713819965256   1.0000000
N2   N   0.383560967088482   0.902784637239192   0.111086365614746   1.0000000
N2   N   0.382782674944830   0.046606882928025   0.111597680664526   1.0000000
N2   N   0.381387525235513   0.189734878006682   0.111360209139904   1.0000000
N2   N   0.379330596104448   0.332450987629673   0.106576115318273   1.0000000
N2   N   0.384861472156280   0.613609085995932   0.111574449090545   1.0000000
N2   N   0.384366880360770   0.758604752373378   0.111187229968710   1.0000000
N2   N   0.525979958027499   0.901720241998686   0.111038137113164   1.0000000
N2   N   0.525211580082860   0.046242424687869   0.111284908070512   1.0000000
N2   N   0.524406650974510   0.189950521710885   0.111990609742525   1.0000000
N2   N   0.522405192016647   0.332372836634759   0.109115544817222   1.0000000
N2   N   0.529933353395042   0.531060926314348   0.112645192118121   1.0000000
N2   N   0.539548694285901   0.616123835310855   0.114112519876143   1.0000000
N2   N   0.527389639600733   0.755882904558602   0.111831823274646   1.0000000
N2   N   0.669266986165431   0.905526872709682   0.110925289197776   1.0000000
N2   N   0.667793481834330   0.047890368055251   0.110838055360092   1.0000000
N2   N   0.666943313959462   0.191571610982041   0.111244599525425   1.0000000
N2   N   0.665854038851807   0.336155818661295   0.110979577733548   1.0000000
N2   N   0.662574396438556   0.481442624866579   0.110342838015674   1.0000000
N2   N   0.680814459477740   0.630810345194172   0.111190719085585   1.0000000
N2   N   0.675189082747064   0.768499964123786   0.111033012413991   1.0000000
N2   N   0.814698170558803   0.908830239670561   0.110608585649397   1.0000000
N2   N   0.811098427612424   0.048958309982307   0.110560069882189   1.0000000
N2   N   0.809703452592779   0.191412762236813   0.110902960145615   1.0000000
N2   N   0.808970170371681   0.334742977638386   0.110986470398439   1.0000000
N2   N   0.808462164928635   0.478228787881998   0.110648046224362   1.0000000
N2   N   0.814527163072515   0.622014543150790   0.110322485755157   1.0000000
N2   N   0.818078229083787   0.768269679622360   0.110498097670469   1.0000000


