data_1
_audit_creation_method   'vasp2cif'
_cell_length_a    17.52789999999977
_cell_length_b    17.52789999999977
_cell_length_c    15.0
_cell_angle_alpha    90.0
_cell_angle_beta    90.0
_cell_angle_gamma    119.99999999999916

_symmetry_space_group_name_H-M    'P 1'
loop_
_atom_site_label
_atom_site_type_symbol
_atom_site_fract_x
_atom_site_fract_y
_atom_site_fract_z
_atom_site_occupancy
O2   O   0.376996983550904   0.476435886791214   0.094951611644884   1.0000000
B2   B   0.907365840306482   0.951713131863126   0.108901346695921   1.0000000
B2   B   0.907679305609992   0.094432058356259   0.110339044423047   1.0000000
B2   B   0.907691641975784   0.237169512993717   0.111380828492072   1.0000000
B2   B   0.907538388617935   0.380083947305213   0.111504935819618   1.0000000
B2   B   0.906029181806584   0.522779066155933   0.110401261366355   1.0000000
B2   B   0.904707411966219   0.665121829377471   0.108773243275691   1.0000000
B2   B   0.904939339899578   0.807312533135638   0.108229786526876   1.0000000
B2   B   0.050346165848341   0.953051418609523   0.109790100566085   1.0000000
B2   B   0.051304998837460   0.095906634539845   0.109905445553445   1.0000000
B2   B   0.050799927486808   0.237813234037617   0.110025736397148   1.0000000
B2   B   0.050115769452250   0.380492625135968   0.110384096628373   1.0000000
B2   B   0.049071406122130   0.523614581887749   0.110781907396307   1.0000000
B2   B   0.048606278072782   0.666611832101697   0.110615683252514   1.0000000
B2   B   0.049052943358305   0.809676817473554   0.110149894221068   1.0000000
B2   B   0.193333048494049   0.954236109386147   0.110836593505812   1.0000000
B2   B   0.195891281155141   0.098985822324630   0.109901736623744   1.0000000
B2   B   0.195310607268313   0.240136125285000   0.108149811326552   1.0000000
B2   B   0.192985653869313   0.380721910567395   0.106239630454918   1.0000000
B2   B   0.191315373763595   0.523830761779890   0.107829290379160   1.0000000
B2   B   0.191518119646225   0.667201561491380   0.109317012355388   1.0000000
B2   B   0.192113640458755   0.810518081333950   0.110658100735351   1.0000000
B2   B   0.335757212682203   0.954083046437512   0.110479811869965   1.0000000
B2   B   0.337494609181945   0.098847175887332   0.110340686979813   1.0000000
B2   B   0.343030987898219   0.247324636346526   0.108288932614308   1.0000000
B2   B   0.339034182211934   0.385045832554793   0.101947847587858   1.0000000
B2   B   0.332586841335896   0.521474244184150   0.102566057361240   1.0000000
B2   B   0.333618412920672   0.666809252077279   0.107196342522428   1.0000000
B2   B   0.334679659052814   0.810374332612073   0.109258268340950   1.0000000
B2   B   0.478194037637893   0.952928260314716   0.109292402609986   1.0000000
B2   B   0.479245916875275   0.096371595516064   0.110089360209974   1.0000000
B2   B   0.481246419484718   0.241176116529000   0.109080538864307   1.0000000
B2   B   0.497234578132900   0.398492462753861   0.107563316850995   1.0000000
B2   B   0.473260682010485   0.669311580989206   0.117880492642927   1.0000000
B2   B   0.477209781036065   0.810321085876720   0.108935181951827   1.0000000
B2   B   0.621168444667773   0.951522250223613   0.109436094480603   1.0000000
B2   B   0.621677145026745   0.094280441963452   0.110061736890017   1.0000000
B2   B   0.622438942356220   0.236804296437108   0.109955742008607   1.0000000
B2   B   0.623796013996592   0.378332337006152   0.108557814236972   1.0000000
B2   B   0.603415840925950   0.503399714753686   0.108277821131932   1.0000000
B2   B   0.626164203070526   0.665869100108089   0.118270634101229   1.0000000
B2   B   0.621314158906486   0.808657722796079   0.112132819181985   1.0000000
B2   B   0.764406673393328   0.951164725085067   0.109462720709410   1.0000000
B2   B   0.764605582173366   0.094031355739802   0.110511003448883   1.0000000
B2   B   0.764946951041622   0.236820798180353   0.111035899174163   1.0000000
B2   B   0.765230723128060   0.379428613015865   0.110203678953750   1.0000000
B2   B   0.761407332191431   0.520547777563684   0.108366529490944   1.0000000
B2   B   0.758010743934296   0.660002314472051   0.106879355064776   1.0000000
B2   B   0.764073855481212   0.808004058779488   0.108639165121920   1.0000000
N2   N   0.954043020455876   0.903547349548190   0.108869131843199   1.0000000
N2   N   0.955436273217765   0.047112394369488   0.109791969041124   1.0000000
N2   N   0.955402891377589   0.189663437960608   0.110962562627526   1.0000000
N2   N   0.955260232466515   0.332503032352703   0.111605289769971   1.0000000
N2   N   0.954363442413109   0.475553682405062   0.111290526868202   1.0000000
N2   N   0.953428634108052   0.618417126041193   0.110110150742027   1.0000000
N2   N   0.953264099336426   0.760854493619806   0.108963545391495   1.0000000
N2   N   0.097605476530932   0.905342460312315   0.110434164539831   1.0000000
N2   N   0.099343978406291   0.049062417106777   0.109938966516840   1.0000000
N2   N   0.099291445818807   0.191288219173411   0.109685832928934   1.0000000
N2   N   0.098026215589629   0.333140325383283   0.109146730962932   1.0000000
N2   N   0.096878613704830   0.476037442775022   0.110101793313678   1.0000000
N2   N   0.096627976601445   0.619139287121663   0.110545462342673   1.0000000
N2   N   0.096777889110269   0.762174784243378   0.110734167093343   1.0000000
N2   N   0.240369617810159   0.905905047495959   0.110964827810908   1.0000000
N2   N   0.241851711346462   0.049895531455841   0.110619332206795   1.0000000
N2   N   0.245198692255164   0.195370677412560   0.108804092313703   1.0000000
N2   N   0.242639960493840   0.335370493219291   0.105338214918889   1.0000000
N2   N   0.238825964369966   0.476322883510674   0.105325990814357   1.0000000
N2   N   0.239252390686591   0.619331582201779   0.107416593197230   1.0000000
N2   N   0.239655116606847   0.762503861135908   0.109858037865613   1.0000000
N2   N   0.382923221741164   0.905407237265767   0.109726082823942   1.0000000
N2   N   0.383857994549827   0.049291209033794   0.110484186470305   1.0000000
N2   N   0.385812452826438   0.194428959542601   0.109548996724633   1.0000000
N2   N   0.393618163342642   0.345542434029323   0.106111692359890   1.0000000
N2   N   0.381550401713086   0.618052117028910   0.108115378129365   1.0000000
N2   N   0.382274174283991   0.761925070019660   0.108328810513850   1.0000000
N2   N   0.525669701611850   0.904560027387610   0.108661902442893   1.0000000
N2   N   0.526326780217409   0.047563252753739   0.109822892818169   1.0000000
N2   N   0.527349681668997   0.190964659927231   0.109771498252760   1.0000000
N2   N   0.529923269675751   0.335110462443072   0.108075445698330   1.0000000
N2   N   0.499787877440559   0.569509442561924   0.203862832638139   1.0000000
N2   N   0.527248036280760   0.624940860913805   0.147074628535749   1.0000000
N2   N   0.524886745084350   0.761620169611504   0.112185983945363   1.0000000
N2   N   0.668467057655886   0.903027701813357   0.109908365215834   1.0000000
N2   N   0.669123607653628   0.046148886634553   0.109900069446626   1.0000000
N2   N   0.669833254077362   0.188821010296467   0.110473787258318   1.0000000
N2   N   0.671084853879768   0.330933665655547   0.109535348058074   1.0000000
N2   N   0.667774794374320   0.472156785794394   0.108185843188578   1.0000000
N2   N   0.658903627869739   0.608586793990099   0.109344188487124   1.0000000
N2   N   0.668036032135642   0.759922946326857   0.112400496175536   1.0000000
N2   N   0.811556036501527   0.903227759111697   0.108438854686929   1.0000000
N2   N   0.812054934318269   0.046170242613142   0.110099066047421   1.0000000
N2   N   0.812480203845249   0.189038928651241   0.111249310692497   1.0000000
N2   N   0.812930027232441   0.331891211013576   0.111207723575236   1.0000000
N2   N   0.811439068430734   0.474633077990298   0.109675807778955   1.0000000
N2   N   0.809101787061387   0.616554974878503   0.107312344409238   1.0000000
N2   N   0.808130315410680   0.757564972839764   0.107361858683077   1.0000000


