data_1
_audit_creation_method   'vasp2cif'
_cell_length_a    17.52789999999977
_cell_length_b    17.52789999999977
_cell_length_c    15.0
_cell_angle_alpha    90.0
_cell_angle_beta    90.0
_cell_angle_gamma    119.99999999999916

_symmetry_space_group_name_H-M    'P 1'
loop_
_atom_site_label
_atom_site_type_symbol
_atom_site_fract_x
_atom_site_fract_y
_atom_site_fract_z
_atom_site_occupancy
B2   B   0.907958179908822   0.953109939952167   0.110734397678562   1.0000000
B2   B   0.908679495747885   0.095738436753403   0.110768117317810   1.0000000
B2   B   0.908870934595752   0.238025935275237   0.110741092810413   1.0000000
B2   B   0.908852709306437   0.380493362942804   0.110711980116914   1.0000000
B2   B   0.907851433818741   0.523054081972247   0.110754076160526   1.0000000
B2   B   0.906102553167571   0.665375747135677   0.110775273459674   1.0000000
B2   B   0.903325564821382   0.806809397843289   0.110711832654747   1.0000000
B2   B   0.050044980386009   0.953562221501193   0.110711828368833   1.0000000
B2   B   0.052363056938596   0.097385731125542   0.110777419008167   1.0000000
B2   B   0.052143254045573   0.239219510415436   0.110800078933848   1.0000000
B2   B   0.051243136833406   0.381415727846134   0.110758609837791   1.0000000
B2   B   0.049922132643889   0.524359301205063   0.110732096071101   1.0000000
B2   B   0.049041374177754   0.667380479228121   0.110756261137992   1.0000000
B2   B   0.048632245874924   0.810227110669678   0.110729693602252   1.0000000
B2   B   0.193113917271401   0.954854993763462   0.110703640422712   1.0000000
B2   B   0.196455966274371   0.100086309139974   0.110724563393672   1.0000000
B2   B   0.197020418727336   0.242322331076988   0.110754040202245   1.0000000
B2   B   0.194538452383725   0.382624244157431   0.110755824862503   1.0000000
B2   B   0.191603832328875   0.525102790423358   0.110745245320612   1.0000000
B2   B   0.190888079539950   0.668280471855479   0.110738182138032   1.0000000
B2   B   0.191825420025809   0.811367581564410   0.110736930074030   1.0000000
B2   B   0.335565098352252   0.954679947752074   0.110724322960404   1.0000000
B2   B   0.337460873630342   0.098797093982894   0.110731955333594   1.0000000
B2   B   0.344379876509790   0.247986876771653   0.110751781244338   1.0000000
B2   B   0.341530704992503   0.387439460977886   0.110737938017157   1.0000000
B2   B   0.333027510407935   0.526685781817402   0.110739502768763   1.0000000
B2   B   0.331786950199764   0.669135190346700   0.110736662395935   1.0000000
B2   B   0.334412128566648   0.811790149919836   0.110759282384323   1.0000000
B2   B   0.478163357833340   0.953528096479053   0.110753096625778   1.0000000
B2   B   0.479316589585228   0.095856285146255   0.110763993824135   1.0000000
B2   B   0.481255000654763   0.239016504125787   0.110762749940746   1.0000000
B2   B   0.498513824657571   0.395445473180980   0.110797677587481   1.0000000
B2   B   0.470812744462308   0.668093187181114   0.110730362440429   1.0000000
B2   B   0.476966876320224   0.811236689287760   0.110743929588275   1.0000000
B2   B   0.621218250847604   0.953821099629372   0.110746469964061   1.0000000
B2   B   0.622117433281918   0.094840889088869   0.110747132707284   1.0000000
B2   B   0.623008350956125   0.235642980535021   0.110745572991346   1.0000000
B2   B   0.624865411155798   0.375283645584358   0.110776459682913   1.0000000
B2   B   0.608898249280827   0.499263069231158   0.110770534836846   1.0000000
B2   B   0.619648182228453   0.813075957290758   0.110710222493742   1.0000000
B2   B   0.764676167740812   0.952956461910657   0.110746973840438   1.0000000
B2   B   0.765414081707077   0.095155416801240   0.110741682429399   1.0000000
B2   B   0.765988306774305   0.237049938517051   0.110720271533803   1.0000000
B2   B   0.766742933311793   0.378904890753686   0.110713903370882   1.0000000
B2   B   0.764747539183740   0.519826753685944   0.110752069176104   1.0000000
B2   B   0.758890517781551   0.657070947636693   0.110730988849191   1.0000000
B2   B   0.764001249769727   0.810393931379264   0.110689562882083   1.0000000
P2   P   0.615592373667632   0.659294122944423   0.110689661626331   1.0000000
N2   N   0.953752673085561   0.903818453771015   0.110701593707192   1.0000000
N2   N   0.956643591973313   0.048646142517490   0.110751169222653   1.0000000
N2   N   0.956626464037394   0.190864390864987   0.110753003580222   1.0000000
N2   N   0.956253320188401   0.333106196573863   0.110723502337988   1.0000000
N2   N   0.955384955021531   0.475745899943024   0.110714195708137   1.0000000
N2   N   0.954304482590129   0.618576237607259   0.110755683617461   1.0000000
N2   N   0.952947332007557   0.761071204305848   0.110722354838769   1.0000000
N2   N   0.097421813967941   0.905985394213564   0.110691776144459   1.0000000
N2   N   0.099827246890124   0.049911072957640   0.110722427059047   1.0000000
N2   N   0.100667314917520   0.192703272770935   0.110774452814834   1.0000000
N2   N   0.098950925204394   0.334129264469207   0.110768863527684   1.0000000
N2   N   0.096941580648244   0.476622434183543   0.110734755291443   1.0000000
N2   N   0.096163450037502   0.619797129717212   0.110720432222285   1.0000000
N2   N   0.096436055534867   0.762938290558216   0.110726360092212   1.0000000
N2   N   0.240116437007906   0.906847023062866   0.110702121042364   1.0000000
N2   N   0.241994773858645   0.050535356820409   0.110692637068607   1.0000000
N2   N   0.246427999444703   0.196509735466785   0.110722075821026   1.0000000
N2   N   0.244200572409830   0.337072422391404   0.110725435893728   1.0000000
N2   N   0.238455729164674   0.477367439208335   0.110717874350556   1.0000000
N2   N   0.237120486468223   0.620498550822536   0.110721102349221   1.0000000
N2   N   0.238960558423849   0.763802229500959   0.110729785089222   1.0000000
N2   N   0.382759845848108   0.906956230255226   0.110731424514242   1.0000000
N2   N   0.383961683337474   0.049780635736386   0.110727635389382   1.0000000
N2   N   0.386334459968206   0.194177631535693   0.110732091579910   1.0000000
N2   N   0.396514260054789   0.345971128794691   0.110750046132561   1.0000000
N2   N   0.381189184650704   0.481248355496965   0.110724591628883   1.0000000
N2   N   0.376760439985579   0.621714886349637   0.110720629519572   1.0000000
N2   N   0.381381297436601   0.764601171851851   0.110734001316451   1.0000000
N2   N   0.525760685716233   0.906450482684251   0.110729833493816   1.0000000
N2   N   0.526756119148660   0.048237367885607   0.110747880335598   1.0000000
N2   N   0.527933480853650   0.190088428747430   0.110751359569632   1.0000000
N2   N   0.530692682997905   0.332445762344259   0.110752182297952   1.0000000
N2   N   0.471996481546011   0.523709199085863   0.110764820921818   1.0000000
N2   N   0.507848563056734   0.614315931443388   0.110691840296592   1.0000000
N2   N   0.524176370430164   0.764147880649778   0.110700923059977   1.0000000
N2   N   0.669239777145061   0.907582111600043   0.110725732761859   1.0000000
N2   N   0.670066108587726   0.048301064075020   0.110725919612534   1.0000000
N2   N   0.670839714772398   0.189077557844374   0.110724869371510   1.0000000
N2   N   0.672389677777184   0.329356101010215   0.110711120383492   1.0000000
N2   N   0.671219078875573   0.468441640788638   0.110751788581802   1.0000000
N2   N   0.662760533803309   0.597231496126284   0.110690408262735   1.0000000
N2   N   0.670440744572288   0.770455547512454   0.110639496010135   1.0000000
N2   N   0.812960498382347   0.905794321153374   0.110716496070846   1.0000000
N2   N   0.813287254245711   0.048094953443784   0.110740586668007   1.0000000
N2   N   0.813693989643684   0.190055041160562   0.110715767109739   1.0000000
N2   N   0.814219531162022   0.331916167682967   0.110686314113722   1.0000000
N2   N   0.813629044902440   0.473874536265147   0.110723012982364   1.0000000
N2   N   0.811354046910924   0.615329980404526   0.110744311292062   1.0000000
N2   N   0.806409940538983   0.756431697649510   0.110685500083478   1.0000000


