data_1
_audit_creation_method   'vasp2cif'
_cell_length_a    14.93631414619966
_cell_length_b    14.936314146199727
_cell_length_c    13.341276283792837
_cell_angle_alpha    90.0
_cell_angle_beta    90.0
_cell_angle_gamma    119.99999999999984

_symmetry_space_group_name_H-M    'P 1'
loop_
_atom_site_label
_atom_site_type_symbol
_atom_site_fract_x
_atom_site_fract_y
_atom_site_fract_z
_atom_site_occupancy
N2   N   0.112959142183128   0.057024887975266   0.125000000000000   1.0000000
N2   N   0.606354014186426   0.549355552744674   0.125000000000000   1.0000000
N2   N   0.444141929522500   0.056384144121624   0.125000000000000   1.0000000
N2   N   0.946726863044228   0.556012717734416   0.125000000000000   1.0000000
N2   N   0.777853848890951   0.055576729421214   0.125000000000000   1.0000000
N2   N   0.111114247822148   0.722222313220852   0.625000000000000   1.0000000
N2   N   0.444445770529332   0.722222358321699   0.625000000000000   1.0000000
N2   N   0.277783982069661   0.222225511279921   0.625000000000000   1.0000000
N2   N   0.777781963151649   0.722220281372048   0.625000000000000   1.0000000
N2   N   0.611113460093367   0.222224238147262   0.625000000000000   1.0000000
N2   N   0.944450155877111   0.222227982376532   0.625000000000000   1.0000000
N2   N   0.278099778248939   0.722560005480491   0.125000000000000   1.0000000
N2   N   0.113303813791520   0.222786363548259   0.125000000000000   1.0000000
N2   N   0.441074442102225   0.222646624424746   0.125000000000000   1.0000000
N2   N   0.610036556201769   0.720270498105787   0.125000000000000   1.0000000
N2   N   0.946811767338895   0.724168155637080   0.125000000000000   1.0000000
N2   N   0.777235469189998   0.221566628030273   0.125000000000000   1.0000000
N2   N   0.111116357248629   0.888891694563873   0.625000000000000   1.0000000
N2   N   0.444446241874698   0.888892682969299   0.625000000000000   1.0000000
N2   N   0.277784739905997   0.388892690863570   0.625000000000000   1.0000000
N2   N   0.611114466661190   0.388890257954715   0.625000000000000   1.0000000
N2   N   0.777783403242135   0.888889197409177   0.625000000000000   1.0000000
N2   N   0.944450388398249   0.388897763762447   0.625000000000000   1.0000000
N2   N   0.110897804149731   0.388823576715405   0.125000000000000   1.0000000
N2   N   0.278174238537404   0.889299230906636   0.125000000000000   1.0000000
N2   N   0.610897439398309   0.888571263329089   0.125000000000000   1.0000000
N2   N   0.944659502401054   0.888974118275584   0.125000000000000   1.0000000
N2   N   0.776242195512213   0.386651400775951   0.125000000000000   1.0000000
N2   N   0.277780749115500   0.555557274177447   0.625000000000000   1.0000000
N2   N   0.111117809160344   0.055557275519691   0.625000000000000   1.0000000
N2   N   0.611111444568404   0.555554099898428   0.625000000000000   1.0000000
N2   N   0.444447450274644   0.055557463468565   0.625000000000000   1.0000000
N2   N   0.944451010242217   0.555557968302688   0.625000000000000   1.0000000
N2   N   0.111836043057520   0.555561037329630   0.125000000000000   1.0000000
N2   N   0.777781849630953   0.055559084922161   0.625000000000000   1.0000000
N2   N   0.277825573698691   0.055486421864239   0.125000000000000   1.0000000
N2   N   0.442823575478860   0.555536023512668   0.125000000000000   1.0000000
N2   N   0.610742907484568   0.055851807055022   0.125000000000000   1.0000000
N2   N   0.444448000668466   0.555554801378027   0.625000000000000   1.0000000
N2   N   0.945215731212509   0.055885721725395   0.125000000000000   1.0000000
N2   N   0.277779945762925   0.722223835290048   0.625000000000000   1.0000000
N2   N   0.111117257291459   0.222224923819865   0.625000000000000   1.0000000
N2   N   0.444450310265163   0.222224499800505   0.625000000000000   1.0000000
N2   N   0.611110836702351   0.722218067367126   0.625000000000000   1.0000000
N2   N   0.944450422307258   0.722223661438815   0.625000000000000   1.0000000
N2   N   0.777782202857135   0.222228070306870   0.625000000000000   1.0000000
N2   N   0.112037764864713   0.722812422819151   0.125000000000000   1.0000000
N2   N   0.444250139581473   0.722531919498458   0.125000000000000   1.0000000
N2   N   0.283947217606669   0.224919547724939   0.125000000000000   1.0000000
N2   N   0.775931580787993   0.722215030206314   0.125000000000000   1.0000000
N2   N   0.609232256918490   0.222782796023096   0.125000000000000   1.0000000
N2   N   0.944985285425327   0.222302393738255   0.125000000000000   1.0000000
N2   N   0.111115314316727   0.388894592854057   0.625000000000000   1.0000000
N2   N   0.277782324520655   0.888891602479537   0.625000000000000   1.0000000
N2   N   0.611111715295953   0.888891086659397   0.625000000000000   1.0000000
N2   N   0.444450493463986   0.388892328391132   0.625000000000000   1.0000000
N2   N   0.944451886163244   0.888890781918295   0.625000000000000   1.0000000
N2   N   0.112104234161521   0.889975781507569   0.125000000000000   1.0000000
N2   N   0.777784767784935   0.388894844734075   0.625000000000000   1.0000000
N2   N   0.444501556573208   0.889425418299127   0.125000000000000   1.0000000
N2   N   0.277481230019694   0.389427958547728   0.125000000000000   1.0000000
N2   N   0.277511626940346   0.555730455176350   0.125000000000000   1.0000000
N2   N   0.607905987745904   0.389072826488153   0.125000000000000   1.0000000
N2   N   0.777578694134377   0.889105278233935   0.125000000000000   1.0000000
N2   N   0.944037403997065   0.388777832287163   0.125000000000000   1.0000000
N2   N   0.111113199975282   0.555557611224007   0.625000000000000   1.0000000
N2   N   0.277783982631240   0.055558463627258   0.625000000000000   1.0000000
N2   N   0.777782237616400   0.555555824359034   0.625000000000000   1.0000000
N2   N   0.611110296587687   0.055557711964104   0.625000000000000   1.0000000
N2   N   0.944452487801889   0.055557125308484   0.625000000000000   1.0000000
N2   N   0.055556897054182   0.111110536552575   0.374827650214263   1.0000000
N2   N   0.555564288820674   0.611105841882139   0.374745463960019   1.0000000
N2   N   0.388899931764099   0.111130390105581   0.374645993762786   1.0000000
N2   N   0.888897638295750   0.611120167834037   0.374816803828084   1.0000000
N2   N   0.722230002998192   0.111106050644518   0.374887988841925   1.0000000
N2   N   0.055561560156905   0.777791705672184   0.875121836569060   1.0000000
N2   N   0.388908797414773   0.777785668732492   0.875114087432838   1.0000000
N2   N   0.222237339931876   0.277774935705955   0.875265428515346   1.0000000
N2   N   0.722227894801172   0.777787450978117   0.875176330372913   1.0000000
N2   N   0.555548076494241   0.277787270728590   0.875433555248465   1.0000000
N2   N   0.888893437778871   0.277774623805969   0.875146836209969   1.0000000
N2   N   0.222235387813401   0.777789461452114   0.374890693534145   1.0000000
N2   N   0.055561826028468   0.277770325441457   0.374850531819269   1.0000000
N2   N   0.388892044124748   0.277774639328747   0.375095974074666   1.0000000
N2   N   0.555572002316187   0.777780707333199   0.374856740876286   1.0000000
N2   N   0.888882825916128   0.777779875655003   0.374735111117876   1.0000000
N2   N   0.722221903201314   0.277770367965828   0.374782337442498   1.0000000
N2   N   0.055552394234119   0.944453905161170   0.875178938820843   1.0000000
N2   N   0.388910233118438   0.944460327458955   0.875151905452265   1.0000000
N2   N   0.222232933484551   0.444439137367273   0.875158269990044   1.0000000
N2   N   0.555579265718193   0.444461135570428   0.874826958258636   1.0000000
N2   N   0.722232360576265   0.944449162021303   0.875106590048844   1.0000000
N2   N   0.888879683871273   0.444443152679586   0.875280603189992   1.0000000
N2   N   0.055556256778059   0.444438564740415   0.374854158900109   1.0000000
N2   N   0.222232422584153   0.944460161300547   0.374836072912560   1.0000000
N2   N   0.555572879512821   0.944450471577824   0.374889862072257   1.0000000
N2   N   0.388901082675760   0.444450008493078   0.375070244677460   1.0000000
N2   N   0.888892620399735   0.944448558820505   0.374860895423019   1.0000000
N2   N   0.722204150292720   0.444433715140686   0.374654896001855   1.0000000
N2   N   0.222232045198405   0.611111988886580   0.875107251878203   1.0000000
N2   N   0.055556897054182   0.111110536552575   0.875172349785737   1.0000000
N2   N   0.555564288820674   0.611105841882139   0.875254536039981   1.0000000
N2   N   0.388899931764099   0.111130390105581   0.875354006237214   1.0000000
N2   N   0.888897638295750   0.611120167834037   0.875183196171916   1.0000000
N2   N   0.055559973646885   0.611111911494363   0.374878105637048   1.0000000
N2   N   0.722230002998192   0.111106050644518   0.875112011158075   1.0000000
N2   N   0.222230440129448   0.111125411321586   0.374673177791004   1.0000000
N2   N   0.388904343445699   0.611110451711985   0.374853013498089   1.0000000
N2   N   0.722209746818982   0.611117370401940   0.374719734619732   1.0000000
N2   N   0.555567713305768   0.111116876855917   0.374794627411576   1.0000000
N2   N   0.388904343445699   0.611110451711985   0.875146986501911   1.0000000
N2   N   0.888896068400580   0.111108181197200   0.374877143085874   1.0000000
N2   N   0.222235387813401   0.777789461452114   0.875109306465855   1.0000000
N2   N   0.055561826028468   0.277770325441457   0.875149468180731   1.0000000
N2   N   0.388892044124748   0.277774639328747   0.874904025925334   1.0000000
N2   N   0.555572002316187   0.777780707333199   0.875143259123714   1.0000000
N2   N   0.888882825916128   0.777779875655003   0.875264888882124   1.0000000
N2   N   0.722221903201314   0.277770367965828   0.875217662557502   1.0000000
N2   N   0.055561560156905   0.777791705672184   0.374878163430940   1.0000000
N2   N   0.388908797414773   0.777785668732492   0.374885912567162   1.0000000
N2   N   0.222237339931876   0.277774935705955   0.374734571484654   1.0000000
N2   N   0.722227894801172   0.777787450978117   0.374823669627086   1.0000000
N2   N   0.555548076494241   0.277787270728590   0.374566444751535   1.0000000
N2   N   0.888893437778871   0.277774623805969   0.374853163790030   1.0000000
N2   N   0.055556256778059   0.444438564740415   0.875145841099892   1.0000000
N2   N   0.222232422584153   0.944460161300547   0.875163927087441   1.0000000
N2   N   0.555572879512821   0.944450471577824   0.875110137927743   1.0000000
N2   N   0.388901082675760   0.444450008493078   0.874929755322540   1.0000000
N2   N   0.888892620399735   0.944448558820505   0.875139104576980   1.0000000
N2   N   0.055552394234119   0.944453905161170   0.374821061179156   1.0000000
N2   N   0.722204150292720   0.444433715140686   0.875345103998145   1.0000000
N2   N   0.388910233118438   0.944460327458955   0.374848094547736   1.0000000
N2   N   0.222232933484551   0.444439137367273   0.374841730009956   1.0000000
N2   N   0.222232045198405   0.611111988886580   0.374892748121797   1.0000000
N2   N   0.555579265718193   0.444461135570428   0.375173041741363   1.0000000
N2   N   0.722232360576265   0.944449162021303   0.374893409951156   1.0000000
N2   N   0.888879683871273   0.444443152679586   0.374719396810008   1.0000000
N2   N   0.055559973646885   0.611111911494363   0.875121894362952   1.0000000
N2   N   0.222230440129448   0.111125411321586   0.875326822208996   1.0000000
N2   N   0.722209746818982   0.611117370401940   0.875280265380268   1.0000000
N2   N   0.555567713305768   0.111116876855917   0.875205372588425   1.0000000
N2   N   0.888896068400580   0.111108181197200   0.875122856914126   1.0000000
B2   B   0.111009943354375   0.055507716173259   0.375117640257933   1.0000000
B2   B   0.611122749562385   0.555619419785106   0.375463789638419   1.0000000
B2   B   0.444474213038906   0.055473894370538   0.375146243487406   1.0000000
B2   B   0.944508198224474   0.555577636232705   0.375038561233589   1.0000000
B2   B   0.777791944562762   0.055538855840583   0.375089596142476   1.0000000
B2   B   0.111127088737880   0.722219423262150   0.874902740930719   1.0000000
B2   B   0.444462016543356   0.722256470948698   0.874905292860530   1.0000000
B2   B   0.277725574171460   0.222217688454657   0.874514143156879   1.0000000
B2   B   0.777821252264137   0.722324436391611   0.874941960036311   1.0000000
B2   B   0.611176614463973   0.222161464048589   0.874854242173202   1.0000000
B2   B   0.944431832949840   0.222194107548581   0.874914938508385   1.0000000
B2   B   0.277793549806674   0.722221002858452   0.375092588849660   1.0000000
B2   B   0.111032335562005   0.222198805405413   0.375117375021773   1.0000000
B2   B   0.444410416438893   0.222195181975921   0.375535450815779   1.0000000
B2   B   0.611139139163839   0.722305871609481   0.375097810672861   1.0000000
B2   B   0.944484217285563   0.722268305551209   0.375046168850096   1.0000000
B2   B   0.777824881731847   0.222173462585416   0.375103917295482   1.0000000
B2   B   0.111074079119093   0.888857688258101   0.874880686983344   1.0000000
B2   B   0.444479186258444   0.888863305461034   0.874895261418657   1.0000000
B2   B   0.277753304937277   0.388936694323685   0.874751939725399   1.0000000
B2   B   0.611142383742565   0.388942339079480   0.874491671114957   1.0000000
B2   B   0.777788016406067   0.888935364264419   0.874913870629148   1.0000000
B2   B   0.944478039000844   0.388869407353672   0.874947840990963   1.0000000
B2   B   0.111088881182645   0.388886430896479   0.375093563795670   1.0000000
B2   B   0.277780105729161   0.888840348179673   0.375127550784663   1.0000000
B2   B   0.611144381942286   0.888906701817264   0.375090004766038   1.0000000
B2   B   0.444428880278803   0.388944726455506   0.375496523250828   1.0000000
B2   B   0.944422209361285   0.888912343392336   0.375058194267648   1.0000000
B2   B   0.777857119158358   0.388869804505213   0.375075321995845   1.0000000
B2   B   0.277769719642627   0.555585085259647   0.874885394852694   1.0000000
B2   B   0.111009943354375   0.055507716173259   0.874882359742067   1.0000000
B2   B   0.611122749562385   0.555619419785106   0.874536210361580   1.0000000
B2   B   0.444474213038906   0.055473894370538   0.874853756512594   1.0000000
B2   B   0.944508198224474   0.555577636232705   0.874961438766411   1.0000000
B2   B   0.111126975771328   0.555561906619676   0.375079801134711   1.0000000
B2   B   0.777791944562762   0.055538855840583   0.874910403857524   1.0000000
B2   B   0.277712154975265   0.055467176922173   0.375208779538221   1.0000000
B2   B   0.444421825650149   0.555605552016960   0.375243116906725   1.0000000
B2   B   0.777870458964645   0.555637553032525   0.375076529404419   1.0000000
B2   B   0.611163017290629   0.055505265442572   0.375117030490938   1.0000000
B2   B   0.444421825650149   0.555605552016960   0.874756883093274   1.0000000
B2   B   0.944397296584679   0.055542243129677   0.375094161292788   1.0000000
B2   B   0.277793549806674   0.722221002858452   0.874907411150340   1.0000000
B2   B   0.111032335562005   0.222198805405413   0.874882624978227   1.0000000
B2   B   0.444410416438893   0.222195181975921   0.874464549184221   1.0000000
B2   B   0.611139139163839   0.722305871609481   0.874902189327140   1.0000000
B2   B   0.944484217285563   0.722268305551209   0.874953831149904   1.0000000
B2   B   0.777824881731847   0.222173462585416   0.874896082704518   1.0000000
B2   B   0.111127088737880   0.722219423262150   0.375097259069281   1.0000000
B2   B   0.444462016543356   0.722256470948698   0.375094707139470   1.0000000
B2   B   0.277725574171460   0.222217688454657   0.375485856843122   1.0000000
B2   B   0.777821252264137   0.722324436391611   0.375058039963689   1.0000000
B2   B   0.611176614463973   0.222161464048589   0.375145757826798   1.0000000
B2   B   0.944431832949840   0.222194107548581   0.375085061491615   1.0000000
B2   B   0.111088881182645   0.388886430896479   0.874906436204330   1.0000000
B2   B   0.277780105729161   0.888840348179673   0.874872449215337   1.0000000
B2   B   0.611144381942286   0.888906701817264   0.874909995233961   1.0000000
B2   B   0.444428880278803   0.388944726455506   0.874503476749173   1.0000000
B2   B   0.944422209361285   0.888912343392336   0.874941805732352   1.0000000
B2   B   0.111074079119093   0.888857688258101   0.375119313016656   1.0000000
B2   B   0.777857119158358   0.388869804505213   0.874924678004155   1.0000000
B2   B   0.444479186258444   0.888863305461034   0.375104738581342   1.0000000
B2   B   0.277753304937277   0.388936694323685   0.375248060274601   1.0000000
B2   B   0.277769719642627   0.555585085259647   0.375114605147305   1.0000000
B2   B   0.611142383742565   0.388942339079480   0.375508328885043   1.0000000
B2   B   0.777788016406067   0.888935364264419   0.375086129370852   1.0000000
B2   B   0.944478039000844   0.388869407353672   0.375052159009037   1.0000000
B2   B   0.111126975771328   0.555561906619676   0.874920198865289   1.0000000
B2   B   0.277712154975265   0.055467176922173   0.874791220461779   1.0000000
B2   B   0.777870458964645   0.555637553032525   0.874923470595581   1.0000000
B2   B   0.611163017290629   0.055505265442572   0.874882969509062   1.0000000
B2   B   0.944397296584679   0.055542243129677   0.874905838707212   1.0000000
B2   B   0.056339067749030   0.111611108482884   0.125000000000000   1.0000000
B2   B   0.552342239344014   0.608959849868151   0.125000000000000   1.0000000
B2   B   0.387197820028062   0.109514498408285   0.125000000000000   1.0000000
B2   B   0.894612333635558   0.614009600073227   0.125000000000000   1.0000000
B2   B   0.722019608055642   0.110681656483646   0.125000000000000   1.0000000
B2   B   0.055566324229422   0.777771521659180   0.625000000000000   1.0000000
B2   B   0.388883436843479   0.777774445042266   0.625000000000000   1.0000000
B2   B   0.222206223401270   0.277787296948269   0.625000000000000   1.0000000
B2   B   0.722227713686148   0.777791905384480   0.625000000000000   1.0000000
B2   B   0.555572361096445   0.277772111866623   0.625000000000000   1.0000000
B2   B   0.888904548340433   0.277786495628798   0.625000000000000   1.0000000
B2   B   0.222801887294487   0.778062507586821   0.125000000000000   1.0000000
B2   B   0.056286739639372   0.277907598435525   0.125000000000000   1.0000000
B2   B   0.555118555747108   0.777264116283944   0.125000000000000   1.0000000
B2   B   0.888772540990621   0.777594223680120   0.125000000000000   1.0000000
B2   B   0.721258180957333   0.276182979625477   0.125000000000000   1.0000000
B2   B   0.055550760808671   0.944432013870978   0.625000000000000   1.0000000
B2   B   0.388883591745759   0.944418549472087   0.625000000000000   1.0000000
B2   B   0.222213251910413   0.444460872573676   0.625000000000000   1.0000000
B2   B   0.555559559973754   0.444458276708553   0.625000000000000   1.0000000
B2   B   0.722224124791746   0.944448208116457   0.625000000000000   1.0000000
B2   B   0.888921261526600   0.444459177279800   0.625000000000000   1.0000000
B2   B   0.055413373067304   0.444506136697089   0.125000000000000   1.0000000
B2   B   0.222324856459241   0.944018701446395   0.125000000000000   1.0000000
B2   B   0.555468117018537   0.944439702678649   0.125000000000000   1.0000000
B2   B   0.387565422227132   0.445359807739403   0.125000000000000   1.0000000
B2   B   0.888982119018469   0.944595883208053   0.125000000000000   1.0000000
B2   B   0.720616480828923   0.440557831959400   0.125000000000000   1.0000000
B2   B   0.222220580220843   0.611118012894364   0.625000000000000   1.0000000
B2   B   0.055542772492321   0.111107999873166   0.625000000000000   1.0000000
B2   B   0.555552395799376   0.611131369353458   0.625000000000000   1.0000000
B2   B   0.388884982495146   0.111084403092897   0.625000000000000   1.0000000
B2   B   0.888925752317157   0.611127042972965   0.625000000000000   1.0000000
B2   B   0.057370782934620   0.611593817111097   0.125000000000000   1.0000000
B2   B   0.722231179232655   0.111106666220080   0.625000000000000   1.0000000
B2   B   0.223608972851557   0.111206739013486   0.125000000000000   1.0000000
B2   B   0.388025615942497   0.611877508446601   0.125000000000000   1.0000000
B2   B   0.719218522990530   0.611973786323875   0.125000000000000   1.0000000
B2   B   0.555090292403398   0.111138961521696   0.125000000000000   1.0000000
B2   B   0.388880638455125   0.611125722201407   0.625000000000000   1.0000000
B2   B   0.889136415441247   0.111157674488049   0.125000000000000   1.0000000
B2   B   0.222221404042183   0.777764301183002   0.625000000000000   1.0000000
B2   B   0.055549558682979   0.277788744515212   0.625000000000000   1.0000000
B2   B   0.388885624554498   0.277784876385025   0.625000000000000   1.0000000
B2   B   0.555552208566535   0.777788828455726   0.625000000000000   1.0000000
B2   B   0.888905166602434   0.777786166790273   0.625000000000000   1.0000000
B2   B   0.722249736247451   0.277777923921734   0.625000000000000   1.0000000
B2   B   0.057338110522889   0.779155781748276   0.125000000000000   1.0000000
B2   B   0.388943823031560   0.778295115555468   0.125000000000000   1.0000000
B2   B   0.224266823260318   0.279650695390291   0.125000000000000   1.0000000
B2   B   0.721369248588835   0.778321240996390   0.125000000000000   1.0000000
B2   B   0.553166941212005   0.277360961028713   0.125000000000000   1.0000000
B2   B   0.888841406407457   0.277528346915553   0.125000000000000   1.0000000
B2   B   0.055564412998069   0.444457598775087   0.625000000000000   1.0000000
B2   B   0.222213729780471   0.944416377498752   0.625000000000000   1.0000000
B2   B   0.555555010659792   0.944435136784401   0.625000000000000   1.0000000
B2   B   0.388881277593957   0.444461662039089   0.625000000000000   1.0000000
B2   B   0.888889716956842   0.944447227393133   0.625000000000000   1.0000000
B2   B   0.056218770235451   0.945022285989866   0.125000000000000   1.0000000
B2   B   0.722253530752651   0.444453726629531   0.625000000000000   1.0000000
B2   B   0.388897736270155   0.944620151626012   0.125000000000000   1.0000000
B2   B   0.221507011139096   0.444951852198054   0.125000000000000   1.0000000
B2   B   0.222483256674968   0.611508753531056   0.125000000000000   1.0000000
B2   B   0.722066524629242   0.944579471179268   0.125000000000000   1.0000000
B2   B   0.888953019730891   0.444528310934383   0.125000000000000   1.0000000
B2   B   0.055573688160018   0.611116740310078   0.625000000000000   1.0000000
B2   B   0.222206998375984   0.111095212124434   0.625000000000000   1.0000000
B2   B   0.722240124327072   0.611132869126546   0.625000000000000   1.0000000
B2   B   0.555563734289030   0.111090538680450   0.625000000000000   1.0000000
B2   B   0.888889574698243   0.111113902324802   0.625000000000000   1.0000000
C2   C   0.446463295041125   0.386334448363687   0.125000000000000   1.0000000
C2   C   0.778092714511298   0.555613260962362   0.125000000000000   1.0000000
C2   C   0.390147666271452   0.277231866730251   0.125000000000000   1.0000000
C2   C   0.555011019003692   0.442347919532413   0.125000000000000   1.0000000


