data_1
_audit_creation_method   'vasp2cif'
_cell_length_a    17.52789999999977
_cell_length_b    17.52789999999977
_cell_length_c    15.0
_cell_angle_alpha    90.0
_cell_angle_beta    90.0
_cell_angle_gamma    119.99999999999916

_symmetry_space_group_name_H-M    'P 1'
loop_
_atom_site_label
_atom_site_type_symbol
_atom_site_fract_x
_atom_site_fract_y
_atom_site_fract_z
_atom_site_occupancy
B2   B   0.905809889580830   0.954230566295499   0.111011248441327   1.0000000
B2   B   0.905746236802736   0.096248593572063   0.111103195428255   1.0000000
B2   B   0.905321791627506   0.238256885678496   0.111116791543394   1.0000000
B2   B   0.904505397645669   0.380538553359378   0.110960949560961   1.0000000
B2   B   0.901243698263684   0.522732153468252   0.111082324104212   1.0000000
B2   B   0.900939066833115   0.665316034310491   0.111464625794834   1.0000000
B2   B   0.904030999481243   0.810474435149088   0.111205825364249   1.0000000
B2   B   0.047676668092666   0.953371231507130   0.111014469803731   1.0000000
B2   B   0.048666507777465   0.096311860205194   0.111064668282778   1.0000000
B2   B   0.048424147067694   0.238729580521478   0.111131679755543   1.0000000
B2   B   0.047124166086876   0.381285183605964   0.111044031472979   1.0000000
B2   B   0.044610041163242   0.523734196297201   0.111130016785752   1.0000000
B2   B   0.044213599834455   0.666051583027967   0.111294764158230   1.0000000
B2   B   0.045008022901097   0.808872155377557   0.111207705133161   1.0000000
B2   B   0.188635297149400   0.951730308389364   0.111121554414195   1.0000000
B2   B   0.191848325602407   0.096708614369776   0.111174810371218   1.0000000
B2   B   0.191451416030619   0.238352188250584   0.111362805208674   1.0000000
B2   B   0.190122069236550   0.381605031599275   0.110967418262845   1.0000000
B2   B   0.186926654812200   0.524603072355156   0.110728858125780   1.0000000
B2   B   0.187205757562718   0.666858132579824   0.111069592250401   1.0000000
B2   B   0.187519097233523   0.808960371204712   0.111272440142606   1.0000000
B2   B   0.330878446041582   0.951072076851642   0.111204585618754   1.0000000
B2   B   0.331813920014372   0.093412121487280   0.111146697265715   1.0000000
B2   B   0.337692746446250   0.240809314692331   0.111715208037156   1.0000000
B2   B   0.333163379348035   0.380240310767533   0.111885151670368   1.0000000
B2   B   0.327949392695819   0.526404672968306   0.110610249162190   1.0000000
B2   B   0.330064514803902   0.668332017881310   0.110433002208674   1.0000000
B2   B   0.330433048519351   0.809607162327845   0.111046193003694   1.0000000
B2   B   0.474149915212787   0.951408636939830   0.111064991576180   1.0000000
B2   B   0.474358372151916   0.091205657089892   0.110777386329004   1.0000000
B2   B   0.474522695910659   0.230368106802452   0.110108576827822   1.0000000
B2   B   0.490867503860120   0.380810255663883   0.112332252126429   1.0000000
B2   B   0.473251903593195   0.672830227759272   0.110275337231241   1.0000000
B2   B   0.474025920684427   0.811767321744925   0.110424264360819   1.0000000
B2   B   0.618319456577269   0.953068640621892   0.110789207301515   1.0000000
B2   B   0.618222788000367   0.092722468175517   0.110852856464383   1.0000000
B2   B   0.618251959359851   0.231713608314747   0.109894115329812   1.0000000
B2   B   0.618359843459562   0.367819917755177   0.109663698498760   1.0000000
B2   B   0.622121114044730   0.675633191081242   0.111108787444541   1.0000000
B2   B   0.618837549681410   0.813543796262468   0.110298095726055   1.0000000
B2   B   0.762591275974898   0.954212840329334   0.110827264568879   1.0000000
B2   B   0.762243429753336   0.095289656355207   0.111011643932363   1.0000000
B2   B   0.762121558010408   0.236580510603843   0.110671550830381   1.0000000
B2   B   0.762089687798104   0.378417378213454   0.110298333480535   1.0000000
B2   B   0.757151653714174   0.521754829949374   0.111359757608394   1.0000000
B2   B   0.759820092879004   0.667604034815066   0.111631238457907   1.0000000
B2   B   0.763434913804749   0.813172986410052   0.110861925209730   1.0000000
As2   As   0.485528161472928   0.519437550838038   0.112808301692903   1.0000000
N2   N   0.952484268379592   0.905862720878909   0.111029238806933   1.0000000
N2   N   0.953678570082404   0.049169677297037   0.111034288194913   1.0000000
N2   N   0.953447107185436   0.191335984711413   0.111151192785259   1.0000000
N2   N   0.952351143097792   0.333408830011297   0.111091982935525   1.0000000
N2   N   0.949480853084342   0.475639781637973   0.111056836218938   1.0000000
N2   N   0.948465393671704   0.617781096846627   0.111300391663094   1.0000000
N2   N   0.949503752963486   0.760819750893158   0.111312161183909   1.0000000
N2   N   0.093610380819713   0.904375810179103   0.111034990811496   1.0000000
N2   N   0.096501457230906   0.049133002163559   0.110994916529180   1.0000000
N2   N   0.096681232760654   0.191583857404073   0.111133874564207   1.0000000
N2   N   0.095604487380283   0.334048340304788   0.111007900616179   1.0000000
N2   N   0.092582890777925   0.476402428723165   0.110978985866032   1.0000000
N2   N   0.092025944688710   0.618746379523503   0.111197169887350   1.0000000
N2   N   0.092231815690104   0.761124139094234   0.111262496598009   1.0000000
N2   N   0.235808902495408   0.904002186105886   0.111203429324272   1.0000000
N2   N   0.237271986068121   0.047267750569679   0.111141725337612   1.0000000
N2   N   0.241672852597832   0.193336589489954   0.111449741261107   1.0000000
N2   N   0.239108835138419   0.333708892189258   0.111374751642386   1.0000000
N2   N   0.234625283439004   0.477089860333232   0.110586348022204   1.0000000
N2   N   0.235199361938265   0.619630452578426   0.110675931942814   1.0000000
N2   N   0.235262750927895   0.761705874270876   0.111206744286086   1.0000000
N2   N   0.378846955771739   0.904216081468078   0.111190648413189   1.0000000
N2   N   0.379306947358479   0.045960932826445   0.111060428079028   1.0000000
N2   N   0.380725150165045   0.188942295029839   0.111105422155155   1.0000000
N2   N   0.391082361540149   0.340221442385950   0.112508166020091   1.0000000
N2   N   0.371856494231465   0.475628526218419   0.111327005635498   1.0000000
N2   N   0.378464714427266   0.621150485640814   0.110258518180636   1.0000000
N2   N   0.378634190474204   0.762840763354713   0.110563216197885   1.0000000
N2   N   0.522737243100314   0.905637662638234   0.110784752617788   1.0000000
N2   N   0.522834429080562   0.045581533112401   0.111013189451593   1.0000000
N2   N   0.523155376819513   0.185340529855136   0.110059797333343   1.0000000
N2   N   0.524841283910925   0.323879397549812   0.109609713944825   1.0000000
N2   N   0.591506573392858   0.478047474560140   0.114639987431743   1.0000000
N2   N   0.526135311638252   0.631399252829338   0.110915652871671   1.0000000
N2   N   0.522674095100284   0.765989621882331   0.110031376991255   1.0000000
N2   N   0.666940819440896   0.907212059077041   0.110574744458064   1.0000000
N2   N   0.666813155662148   0.047244160325434   0.110963910724622   1.0000000
N2   N   0.666844012268427   0.187116457184455   0.110457912635702   1.0000000
N2   N   0.667554986140003   0.326238959477171   0.109415510359007   1.0000000
N2   N   0.657801120495398   0.462682029902041   0.111376594523384   1.0000000
N2   N   0.667654393865909   0.629430151591164   0.111558476308654   1.0000000
N2   N   0.668421545277899   0.768603066285028   0.110458727822471   1.0000000
N2   N   0.810827423247365   0.907510591008702   0.110876911903586   1.0000000
N2   N   0.810479495386159   0.048819299124529   0.111017705605878   1.0000000
N2   N   0.810179460189665   0.190234491514107   0.110983596091791   1.0000000
N2   N   0.809653900509430   0.332003429366322   0.110633805879346   1.0000000
N2   N   0.804913775536371   0.473999170757583   0.110807955013016   1.0000000
N2   N   0.804239884374063   0.616339703368868   0.111685111424180   1.0000000
N2   N   0.809016802122860   0.763620060111632   0.111201463401820   1.0000000


