data_1
_audit_creation_method   'vasp2cif'
_cell_length_a    17.52789999999977
_cell_length_b    17.52789999999977
_cell_length_c    15.0
_cell_angle_alpha    90.0
_cell_angle_beta    90.0
_cell_angle_gamma    119.99999999999916

_symmetry_space_group_name_H-M    'P 1'
loop_
_atom_site_label
_atom_site_type_symbol
_atom_site_fract_x
_atom_site_fract_y
_atom_site_fract_z
_atom_site_occupancy
B2   B   0.904929246333683   0.951256199528390   0.119043708837650   1.0000000
B2   B   0.903740881918279   0.093339994620020   0.118970198486388   1.0000000
B2   B   0.903675482481673   0.236186343601265   0.118707968763218   1.0000000
B2   B   0.904238039762590   0.379280888513579   0.118770499135021   1.0000000
B2   B   0.905643447009805   0.522618440014364   0.119692998347890   1.0000000
B2   B   0.907044854168685   0.666137101757411   0.119661788428663   1.0000000
B2   B   0.906735651921692   0.809412030689068   0.118560695010385   1.0000000
B2   B   0.047833662868219   0.950997644473031   0.120872578643168   1.0000000
B2   B   0.046492735422312   0.093055880115421   0.120553207535047   1.0000000
B2   B   0.046008194481714   0.236013860893314   0.119620224923852   1.0000000
B2   B   0.046168309260009   0.379134180373576   0.118053632570094   1.0000000
B2   B   0.047136427586608   0.522318403731645   0.118797132924898   1.0000000
B2   B   0.048247020953562   0.665453601257769   0.120484022600419   1.0000000
B2   B   0.048457423805531   0.808431634195923   0.121059830155687   1.0000000
B2   B   0.190300779599495   0.950545436185214   0.119965726546464   1.0000000
B2   B   0.189367923873058   0.092660802508854   0.119406042640067   1.0000000
B2   B   0.187709508182195   0.234835441231175   0.118878774173240   1.0000000
B2   B   0.187923355060145   0.378993537450115   0.114568062200476   1.0000000
B2   B   0.188663389664124   0.522172648799670   0.112551899482555   1.0000000
B2   B   0.189943522716246   0.665213327152877   0.116552318675467   1.0000000
B2   B   0.190468745032864   0.807999635226799   0.119350176936277   1.0000000
B2   B   0.332824292036361   0.950382224688602   0.118438080547405   1.0000000
B2   B   0.332397360262216   0.092525386434132   0.117643203489571   1.0000000
B2   B   0.330508487506374   0.233587001558483   0.115300432434956   1.0000000
B2   B   0.327209232909698   0.377521800513864   0.107577428098909   1.0000000
B2   B   0.329726878953240   0.521754915632554   0.094668003067807   1.0000000
B2   B   0.331442713859302   0.665168991001341   0.103349240152856   1.0000000
B2   B   0.332692152622397   0.807918024305279   0.114564009830139   1.0000000
B2   B   0.475475810364413   0.950614611046990   0.116259189121586   1.0000000
B2   B   0.475440115983484   0.092712306882991   0.117113208455458   1.0000000
B2   B   0.474970836274963   0.233950105086175   0.113919533785792   1.0000000
B2   B   0.469550416446393   0.367246707928153   0.105401366543538   1.0000000
B2   B   0.536924799401488   0.643083847776560   0.014055737423691   1.0000000
B2   B   0.469956090164951   0.669520895589714   0.064430028524831   1.0000000
B2   B   0.475125804619088   0.808734962453740   0.105102593984863   1.0000000
B2   B   0.618201542107740   0.950561661286431   0.112642400838325   1.0000000
B2   B   0.618330813932135   0.093225292833319   0.116980320727599   1.0000000
B2   B   0.618608452263848   0.235903637003517   0.115607716722734   1.0000000
B2   B   0.619955319029542   0.378977324781468   0.108010691377054   1.0000000
B2   B   0.634255765591640   0.529689178105459   0.084388278414482   1.0000000
B2   B   0.632061837886113   0.673406707233700   0.063637117814774   1.0000000
B2   B   0.618481021356346   0.808577339411484   0.096006723425040   1.0000000
B2   B   0.761272437634950   0.950764325118508   0.113742716421659   1.0000000
B2   B   0.761009598034900   0.093361686213810   0.116890092079556   1.0000000
B2   B   0.761277580656870   0.236228678459629   0.117546496403892   1.0000000
B2   B   0.762219791471942   0.379354086010837   0.116079946944036   1.0000000
B2   B   0.765186859660202   0.523439863074267   0.111650487252310   1.0000000
B2   B   0.768274452288259   0.668625862931341   0.105523258549490   1.0000000
B2   B   0.764008059612460   0.809992492808326   0.108091541578078   1.0000000
In2   In   0.494798522340799   0.506604945277273   0.052432211388291   1.0000000
N2   N   0.952891521506779   0.903888968592413   0.120338181673195   1.0000000
N2   N   0.951662578191856   0.045947142480402   0.120060095217408   1.0000000
N2   N   0.951057198863657   0.188448683501387   0.119472821502819   1.0000000
N2   N   0.951123322179311   0.331388603282777   0.118783199796443   1.0000000
N2   N   0.951934036626369   0.474470999717773   0.119659998207909   1.0000000
N2   N   0.953025768572462   0.617661964804361   0.120961872501986   1.0000000
N2   N   0.953309951405851   0.760933982158976   0.120710846652853   1.0000000
N2   N   0.095382478810176   0.903421407526686   0.120891487615718   1.0000000
N2   N   0.094700394040400   0.045909114802772   0.120640859582939   1.0000000
N2   N   0.093425185497164   0.187971380283381   0.120335788016847   1.0000000
N2   N   0.093304616101499   0.331186012147499   0.118233537987352   1.0000000
N2   N   0.093852345127156   0.474295098039185   0.117119073504658   1.0000000
N2   N   0.094906623204351   0.617448972053332   0.119097709061848   1.0000000
N2   N   0.095429465241932   0.760517665049790   0.120592934163805   1.0000000
N2   N   0.237895268037114   0.903199191238618   0.119530223679221   1.0000000
N2   N   0.237673269861959   0.045855265835637   0.119019457591820   1.0000000
N2   N   0.236589993355869   0.187997494134625   0.118148361332096   1.0000000
N2   N   0.234163209760610   0.329502593533710   0.116232611979724   1.0000000
N2   N   0.235493816781758   0.474165845048776   0.108509561269726   1.0000000
N2   N   0.236830809449104   0.617363778660224   0.112125237277534   1.0000000
N2   N   0.237687237244471   0.760366657951692   0.117220460883261   1.0000000
N2   N   0.380462325550640   0.903139967524361   0.117121156007676   1.0000000
N2   N   0.380488760529159   0.045844409565614   0.117885530246407   1.0000000
N2   N   0.380238350108265   0.188451530818674   0.115604401745288   1.0000000
N2   N   0.378352360262636   0.330465625797889   0.110174598524227   1.0000000
N2   N   0.371375223434850   0.469350596845243   0.093881679168023   1.0000000
N2   N   0.377690953453757   0.617578933576734   0.086664638744159   1.0000000
N2   N   0.379976523462690   0.760442067177231   0.107664857555244   1.0000000
N2   N   0.523157544377543   0.903403044553319   0.112933919687035   1.0000000
N2   N   0.523234658673068   0.045888057312558   0.117376653575635   1.0000000
N2   N   0.523330954841027   0.188422247850131   0.115558534816341   1.0000000
N2   N   0.523913697822261   0.331104025469998   0.109102550565626   1.0000000
N2   N   0.522588738837202   0.761984187117251   0.090656554198047   1.0000000
N2   N   0.665887431703458   0.902718648718953   0.108772963980987   1.0000000
N2   N   0.665860350608690   0.045743750231894   0.116059495175245   1.0000000
N2   N   0.665958663216029   0.188783501200448   0.117083388574442   1.0000000
N2   N   0.666330739568752   0.331916983198515   0.113651101967263   1.0000000
N2   N   0.668395627697231   0.474945993556877   0.101906731691651   1.0000000
N2   N   0.674781628054510   0.621672803878874   0.083609322240666   1.0000000
N2   N   0.669755925089715   0.762905624220780   0.092837312916226   1.0000000
N2   N   0.809874889200736   0.903920167074673   0.115365354607006   1.0000000
N2   N   0.808552818819441   0.045704438363623   0.116966389641530   1.0000000
N2   N   0.808491964578452   0.188598078920593   0.117919232128760   1.0000000
N2   N   0.808811439723679   0.331612048355999   0.117809857296007   1.0000000
N2   N   0.810018221055753   0.474670219004811   0.117083965325040   1.0000000
N2   N   0.811681031285441   0.618184541524660   0.114463412916396   1.0000000
N2   N   0.811807807927587   0.762151369715892   0.111932688465242   1.0000000


