data_1
_audit_creation_method   'vasp2cif'
_cell_length_a    17.52789999999977
_cell_length_b    17.52789999999977
_cell_length_c    15.0
_cell_angle_alpha    90.0
_cell_angle_beta    90.0
_cell_angle_gamma    119.99999999999916

_symmetry_space_group_name_H-M    'P 1'
loop_
_atom_site_label
_atom_site_type_symbol
_atom_site_fract_x
_atom_site_fract_y
_atom_site_fract_z
_atom_site_occupancy
B2   B   0.904488060065303   0.951124807907499   0.120486880813776   1.0000000
B2   B   0.904378132940786   0.093859937412265   0.120939205106648   1.0000000
B2   B   0.904471692536361   0.236739737258479   0.119955855452423   1.0000000
B2   B   0.904455382188888   0.379530441722925   0.118821623621583   1.0000000
B2   B   0.904527125592128   0.522321418267563   0.118146827832033   1.0000000
B2   B   0.904554875068919   0.665175397071161   0.118370379206391   1.0000000
B2   B   0.904330481769531   0.808047619747228   0.118297779189378   1.0000000
B2   B   0.047399650748519   0.951065318906843   0.123417992231313   1.0000000
B2   B   0.047314978105382   0.093914360108346   0.124445152250593   1.0000000
B2   B   0.047426123511835   0.236919931444432   0.123156806068693   1.0000000
B2   B   0.047427072310960   0.379621287636962   0.120227084758356   1.0000000
B2   B   0.047525917094186   0.522326255575307   0.119324353617019   1.0000000
B2   B   0.047554728931955   0.665129905612866   0.120282841912373   1.0000000
B2   B   0.047407869046490   0.808051172860669   0.121769618093821   1.0000000
B2   B   0.190366885644370   0.951016443250415   0.122973810587081   1.0000000
B2   B   0.190579162334435   0.094283827809602   0.124621833926831   1.0000000
B2   B   0.190095173888941   0.236838813067499   0.124190015698629   1.0000000
B2   B   0.190573447233977   0.380026395784775   0.118080281741788   1.0000000
B2   B   0.190563666065167   0.522260385133294   0.113789240543534   1.0000000
B2   B   0.190602571227756   0.665032904988147   0.116256683658090   1.0000000
B2   B   0.190427173418400   0.807960236329622   0.119971681203833   1.0000000
B2   B   0.333245056789765   0.950840365291475   0.120132466837947   1.0000000
B2   B   0.333288365091035   0.094004528408763   0.120393905542524   1.0000000
B2   B   0.333763180199467   0.237558898290453   0.117369461579298   1.0000000
B2   B   0.331868497715943   0.380216528871182   0.106942267971283   1.0000000
B2   B   0.333622549246827   0.521314013479410   0.093764696839809   1.0000000
B2   B   0.333369053967754   0.664681059465693   0.102159575269671   1.0000000
B2   B   0.333337859928071   0.807797169223699   0.113848520756254   1.0000000
B2   B   0.476050616998423   0.950941142808898   0.116815345828415   1.0000000
B2   B   0.476017882898631   0.093809483575546   0.118228867138810   1.0000000
B2   B   0.475880733795735   0.236397715433681   0.109289038362427   1.0000000
B2   B   0.474220977678567   0.375912301767837   0.083507954758406   1.0000000
B2   B   0.534724379330041   0.635425605651081   0.012016131521968   1.0000000
B2   B   0.473472038930364   0.668660123357815   0.062063814135635   1.0000000
B2   B   0.476163205493067   0.808493080582306   0.103925577416697   1.0000000
B2   B   0.618722239920136   0.950814604393328   0.113119855850045   1.0000000
B2   B   0.618807406010220   0.093763992981319   0.117252465316044   1.0000000
B2   B   0.618768178101943   0.236550252575865   0.113290166427882   1.0000000
B2   B   0.618420494024326   0.378851416535438   0.102402373877747   1.0000000
B2   B   0.620900521475330   0.523067420888474   0.095504246072739   1.0000000
B2   B   0.625050830998956   0.669762340644396   0.069019782358940   1.0000000
B2   B   0.618462979649699   0.807989105099599   0.097600238667246   1.0000000
B2   B   0.761334545159637   0.950808371771598   0.115028281977543   1.0000000
B2   B   0.761570037819344   0.093819829576801   0.117568714846884   1.0000000
B2   B   0.761624417712657   0.236688674118885   0.117006329498148   1.0000000
B2   B   0.761520851876910   0.379444360778405   0.113857895953534   1.0000000
B2   B   0.761798975925519   0.522375319947945   0.110696625621145   1.0000000
B2   B   0.761894217708635   0.665218311971976   0.107683810964640   1.0000000
B2   B   0.761801261063795   0.808726527352209   0.109858737728811   1.0000000
In2   In   0.485970178031725   0.494954397759484   0.999981024193504   1.0000000
N2   N   0.952256011787321   0.903449205603720   0.121393842099420   1.0000000
N2   N   0.952133434457165   0.046342994221193   0.122458515459738   1.0000000
N2   N   0.951954460896492   0.189100190720185   0.121635988328161   1.0000000
N2   N   0.951897776529359   0.331912952735394   0.120017870442092   1.0000000
N2   N   0.952033662462901   0.474724269649313   0.119445012230114   1.0000000
N2   N   0.952186545346385   0.617536501873171   0.119800346486942   1.0000000
N2   N   0.952209130424573   0.760426586162773   0.120232682980895   1.0000000
N2   N   0.095061409699753   0.903341022709208   0.123158353587820   1.0000000
N2   N   0.095092991067436   0.046291065341484   0.124959262113206   1.0000000
N2   N   0.094580404471971   0.188809186687291   0.125109634828655   1.0000000
N2   N   0.094662638737909   0.331924531013687   0.121779884296244   1.0000000
N2   N   0.094794060073875   0.474733503758937   0.118748187030669   1.0000000
N2   N   0.095022613619113   0.617579053849958   0.119263592881859   1.0000000
N2   N   0.095043203509103   0.760429567364023   0.121119936667046   1.0000000
N2   N   0.237902559595088   0.903313027756686   0.121314702095604   1.0000000
N2   N   0.237986507155892   0.046238471707032   0.123562040742488   1.0000000
N2   N   0.238152537332827   0.189247180819263   0.124189292420288   1.0000000
N2   N   0.236620965230868   0.330946339762864   0.120772136145965   1.0000000
N2   N   0.237530825796272   0.474836814401769   0.110626960429909   1.0000000
N2   N   0.237765889936766   0.617617456916286   0.111890225170171   1.0000000
N2   N   0.237850930906321   0.760467974046191   0.116811697088007   1.0000000
N2   N   0.380741831693571   0.903368085906783   0.117580691524732   1.0000000
N2   N   0.380800187997587   0.046182735071519   0.120332004334498   1.0000000
N2   N   0.380889574307706   0.188970855305143   0.115900198546029   1.0000000
N2   N   0.381181682925572   0.331956536832748   0.107904350068102   1.0000000
N2   N   0.375683121966753   0.470477396480662   0.088911157992253   1.0000000
N2   N   0.379574411360105   0.617905764918982   0.086291579677447   1.0000000
N2   N   0.380526864138495   0.760715986491340   0.106175494938359   1.0000000
N2   N   0.523643921119274   0.903900616121850   0.113020712143390   1.0000000
N2   N   0.523652635856416   0.046365422899337   0.118517930212446   1.0000000
N2   N   0.523659367995459   0.188953426583822   0.114540642954618   1.0000000
N2   N   0.523573099256896   0.330850049004153   0.096115344601290   1.0000000
N2   N   0.523255450739840   0.762498150481551   0.090041902398337   1.0000000
N2   N   0.666385576794690   0.903487180501501   0.109821049211841   1.0000000
N2   N   0.666466109513735   0.046365564628968   0.116603251287092   1.0000000
N2   N   0.666451128070081   0.189104520166364   0.116253525223890   1.0000000
N2   N   0.666355438003345   0.331756169725433   0.109929596581661   1.0000000
N2   N   0.666391766193669   0.474381370651004   0.103430391445556   1.0000000
N2   N   0.667656945246522   0.617634416406019   0.093661550695758   1.0000000
N2   N   0.668722290586531   0.762575132682968   0.097001523220390   1.0000000
N2   N   0.809776657178591   0.904014671476555   0.116712294551977   1.0000000
N2   N   0.809206763107152   0.046341369333701   0.118232047130882   1.0000000
N2   N   0.809207938247097   0.189162156155351   0.118231143792740   1.0000000
N2   N   0.809145843729796   0.331922731699199   0.116944636524481   1.0000000
N2   N   0.809283634165588   0.474654950293890   0.114574737680108   1.0000000
N2   N   0.809464740586875   0.617430269227862   0.113925054391525   1.0000000
N2   N   0.809696124031771   0.760658609539993   0.112147058192072   1.0000000


