data_1
_audit_creation_method   'vasp2cif'
_cell_length_a    14.93631414619966
_cell_length_b    14.936314146199727
_cell_length_c    13.341276283792837
_cell_angle_alpha    90.0
_cell_angle_beta    90.0
_cell_angle_gamma    119.99999999999984

_symmetry_space_group_name_H-M    'P 1'
loop_
_atom_site_label
_atom_site_type_symbol
_atom_site_fract_x
_atom_site_fract_y
_atom_site_fract_z
_atom_site_occupancy
Ga2   Ga   0.555555555555557   0.444444444444443   0.375000000000000   1.0000000
N2   N   0.111086705931727   0.055542427219186   0.124915419805978   1.0000000
N2   N   0.611205362011363   0.555744057356030   0.125430477274858   1.0000000
N2   N   0.444447822865208   0.055556727246733   0.124901624624092   1.0000000
N2   N   0.944443272753276   0.555552177134779   0.124901624624092   1.0000000
N2   N   0.777795003079039   0.055564168206193   0.125115479063506   1.0000000
N2   N   0.111108167691517   0.722220750512402   0.625086828885898   1.0000000
N2   N   0.444447822865208   0.722224428951820   0.625098375375919   1.0000000
N2   N   0.277706057625399   0.222182877068896   0.624475002584388   1.0000000
N2   N   0.777817122931108   0.722293942374597   0.624475002584388   1.0000000
N2   N   0.611143486110208   0.222182877068896   0.624475002584388   1.0000000
N2   N   0.944435831793785   0.222204996920953   0.624884520936546   1.0000000
N2   N   0.277779249487564   0.722220750512402   0.124913171114115   1.0000000
N2   N   0.111052397792193   0.222192865562761   0.125199963914044   1.0000000
N2   N   0.444447240969286   0.222227815271890   0.126074254901575   1.0000000
N2   N   0.611143486110208   0.722293942374597   0.125524997415582   1.0000000
N2   N   0.944443272753276   0.722224428951820   0.124901624624092   1.0000000
N2   N   0.777807134437285   0.222192865562761   0.125199963914044   1.0000000
N2   N   0.111110243214068   0.888889756785932   0.625249454922398   1.0000000
N2   N   0.444446180238533   0.888889756785932   0.625249454922398   1.0000000
N2   N   0.277706057625399   0.388856513889832   0.624475002584388   1.0000000
N2   N   0.611205362011363   0.388794637988649   0.624569522725182   1.0000000
N2   N   0.777807134437285   0.888947602207844   0.624800036086005   1.0000000
N2   N   0.944457572780792   0.388877612045899   0.625084580194002   1.0000000
N2   N   0.111086705931727   0.388877612045899   0.124915419805978   1.0000000
N2   N   0.277779249487564   0.888891832308456   0.124913171114115   1.0000000
N2   N   0.611122387954106   0.888913294068272   0.124915419805978   1.0000000
N2   N   0.444255942643950   0.388794637988649   0.125430477274858   1.0000000
N2   N   0.944457572780792   0.888913294068272   0.124915419805978   1.0000000
N2   N   0.777817122931108   0.388856513889832   0.125524997415582   1.0000000
N2   N   0.277775571048181   0.555552177134779   0.625098375375919   1.0000000
N2   N   0.111086705931727   0.055542427219186   0.625084580194002   1.0000000
N2   N   0.611205362011363   0.555744057356030   0.624569522725182   1.0000000
N2   N   0.444447822865208   0.055556727246733   0.625098375375919   1.0000000
N2   N   0.944443272753276   0.555552177134779   0.625098375375919   1.0000000
N2   N   0.111110243214068   0.555553819761491   0.124750545077601   1.0000000
N2   N   0.777795003079039   0.055564168206193   0.624884520936546   1.0000000
N2   N   0.277775571048181   0.055556727246733   0.124901624624092   1.0000000
N2   N   0.444447240969286   0.555552759030762   0.126074254901575   1.0000000
N2   N   0.777772184728093   0.555552759030762   0.126074254901575   1.0000000
N2   N   0.611122387954106   0.055542427219186   0.124915419805978   1.0000000
N2   N   0.444447240969286   0.555552759030762   0.623925745098452   1.0000000
N2   N   0.944435831793785   0.055564168206193   0.125115479063506   1.0000000
N2   N   0.277779249487564   0.722220750512402   0.625086828885898   1.0000000
N2   N   0.111052397792193   0.222192865562761   0.624800036086005   1.0000000
N2   N   0.444447240969286   0.222227815271890   0.623925745098452   1.0000000
N2   N   0.611143486110208   0.722293942374597   0.624475002584388   1.0000000
N2   N   0.944443272753276   0.722224428951820   0.625098375375919   1.0000000
N2   N   0.777807134437285   0.222192865562761   0.624800036086005   1.0000000
N2   N   0.111108167691517   0.722220750512402   0.124913171114115   1.0000000
N2   N   0.444447822865208   0.722224428951820   0.124901624624092   1.0000000
N2   N   0.277706057625399   0.222182877068896   0.125524997415582   1.0000000
N2   N   0.777817122931108   0.722293942374597   0.125524997415582   1.0000000
N2   N   0.611143486110208   0.222182877068896   0.125524997415582   1.0000000
N2   N   0.944435831793785   0.222204996920953   0.125115479063506   1.0000000
N2   N   0.111086705931727   0.388877612045899   0.625084580194002   1.0000000
N2   N   0.277779249487564   0.888891832308456   0.625086828885898   1.0000000
N2   N   0.611122387954106   0.888913294068272   0.625084580194002   1.0000000
N2   N   0.444255942643950   0.388794637988649   0.624569522725182   1.0000000
N2   N   0.944457572780792   0.888913294068272   0.625084580194002   1.0000000
N2   N   0.111110243214068   0.888889756785932   0.124750545077601   1.0000000
N2   N   0.777817122931108   0.388856513889832   0.624475002584388   1.0000000
N2   N   0.444446180238533   0.888889756785932   0.124750545077601   1.0000000
N2   N   0.277706057625399   0.388856513889832   0.125524997415582   1.0000000
N2   N   0.277775571048181   0.555552177134779   0.124901624624092   1.0000000
N2   N   0.611205362011363   0.388794637988649   0.125430477274858   1.0000000
N2   N   0.777807134437285   0.888947602207844   0.125199963914044   1.0000000
N2   N   0.944457572780792   0.388877612045899   0.124915419805978   1.0000000
N2   N   0.111110243214068   0.555553819761491   0.625249454922398   1.0000000
N2   N   0.277775571048181   0.055556727246733   0.625098375375919   1.0000000
N2   N   0.777772184728093   0.555552759030762   0.623925745098452   1.0000000
N2   N   0.611122387954106   0.055542427219186   0.625084580194002   1.0000000
N2   N   0.944435831793785   0.055564168206193   0.624884520936546   1.0000000
N2   N   0.054189224274389   0.110173544006868   0.375000000000000   1.0000000
N2   N   0.556288093456272   0.622565916552961   0.375000000000000   1.0000000
N2   N   0.387657447361548   0.108648228056479   0.375000000000000   1.0000000
N2   N   0.891351771943560   0.612342552638438   0.375000000000000   1.0000000
N2   N   0.722650986399171   0.110173544006868   0.375000000000000   1.0000000
N2   N   0.055569683611474   0.777778543003505   0.875000000000000   1.0000000
N2   N   0.388875526058669   0.777778543003505   0.875000000000000   1.0000000
N2   N   0.222231630362958   0.277782481848161   0.875000000000000   1.0000000
N2   N   0.722217518151855   0.777768369637014   0.875000000000000   1.0000000
N2   N   0.555541000214047   0.277765195979162   0.875000000000000   1.0000000
N2   N   0.888892943012646   0.277788414851754   0.875000000000000   1.0000000
N2   N   0.222222222222221   0.777777777777779   0.375000000000000   1.0000000
N2   N   0.054189224274389   0.277349013600866   0.375000000000000   1.0000000
N2   N   0.377434083447002   0.267055510236611   0.375000000000000   1.0000000
N2   N   0.555093893704753   0.782314084464406   0.375000000000000   1.0000000
N2   N   0.893886857426325   0.782314084464406   0.375000000000000   1.0000000
N2   N   0.724469772095294   0.275530227904694   0.375000000000000   1.0000000
N2   N   0.055565185207911   0.944434814792120   0.875000000000000   1.0000000
N2   N   0.388875526058669   0.944430316388524   0.875000000000000   1.0000000
N2   N   0.222225512910113   0.444459486126845   0.875000000000000   1.0000000
N2   N   0.555555555555557   0.444444444444443   0.875000000000000   1.0000000
N2   N   0.722211585148253   0.944437861494237   0.875000000000000   1.0000000
N2   N   0.888900639883434   0.444459486126845   0.875000000000000   1.0000000
N2   N   0.055829335744223   0.444992004821784   0.375000000000000   1.0000000
N2   N   0.221850592331747   0.943310355224766   0.375000000000000   1.0000000
N2   N   0.555007995178179   0.944170664255770   0.375000000000000   1.0000000
N2   N   0.377434083447002   0.443711906543730   0.375000000000000   1.0000000
N2   N   0.889826455993135   0.945810775725608   0.375000000000000   1.0000000
N2   N   0.732944489763405   0.443711906543730   0.375000000000000   1.0000000
N2   N   0.222221456996496   0.611124473941316   0.875000000000000   1.0000000
N2   N   0.055562138505768   0.111107056987364   0.875000000000000   1.0000000
N2   N   0.555541000214047   0.611109137568198   0.875000000000000   1.0000000
N2   N   0.388878610158592   0.111090553650541   0.875000000000000   1.0000000
N2   N   0.888909446349472   0.611121389841391   0.875000000000000   1.0000000
N2   N   0.056689644775238   0.611873570440264   0.375000000000000   1.0000000
N2   N   0.722211585148262   0.111107056987364   0.875000000000000   1.0000000
N2   N   0.217685915535574   0.106113142573682   0.375000000000000   1.0000000
N2   N   0.387657447361548   0.612342552638438   0.375000000000000   1.0000000
N2   N   0.732944489763405   0.622565916552961   0.375000000000000   1.0000000
N2   N   0.555093893704753   0.106113142573682   0.375000000000000   1.0000000
N2   N   0.388878610158592   0.611121389841391   0.875000000000000   1.0000000
N2   N   0.888888888888886   0.111111111111114   0.375000000000000   1.0000000
N2   N   0.222222222222221   0.777777777777779   0.875000000000000   1.0000000
N2   N   0.055562138505768   0.277788414851754   0.875000000000000   1.0000000
N2   N   0.388890862431824   0.277765195979162   0.875000000000000   1.0000000
N2   N   0.555540513873131   0.777774487089846   0.875000000000000   1.0000000
N2   N   0.888900639883434   0.777774487089846   0.875000000000000   1.0000000
N2   N   0.722217518151855   0.277782481848161   0.875000000000000   1.0000000
N2   N   0.056689644775238   0.778149407668257   0.375000000000000   1.0000000
N2   N   0.388126429559693   0.778149407668257   0.375000000000000   1.0000000
N2   N   0.217727122476038   0.275530227904694   0.375000000000000   1.0000000
N2   N   0.724469772095294   0.782272877523948   0.375000000000000   1.0000000
N2   N   0.556288093456272   0.267055510236611   0.375000000000000   1.0000000
N2   N   0.889826455993135   0.277349013600866   0.375000000000000   1.0000000
N2   N   0.055565185207911   0.444463703749162   0.875000000000000   1.0000000
N2   N   0.222221456996496   0.944430316388524   0.875000000000000   1.0000000
N2   N   0.555536296250829   0.944434814792120   0.875000000000000   1.0000000
N2   N   0.388890862431824   0.444458999786010   0.875000000000000   1.0000000
N2   N   0.888892943012646   0.944437861494237   0.875000000000000   1.0000000
N2   N   0.055829335744223   0.944170664255770   0.375000000000000   1.0000000
N2   N   0.722234804020842   0.444458999786010   0.875000000000000   1.0000000
N2   N   0.388126429559693   0.943310355224766   0.375000000000000   1.0000000
N2   N   0.217685915535574   0.444906106295219   0.375000000000000   1.0000000
N2   N   0.221850592331747   0.611873570440264   0.375000000000000   1.0000000
N2   N   0.722650986399171   0.945810775725608   0.375000000000000   1.0000000
N2   N   0.893886857426325   0.444906106295219   0.375000000000000   1.0000000
N2   N   0.055569683611474   0.611124473941316   0.875000000000000   1.0000000
N2   N   0.222225512910113   0.111099360116582   0.875000000000000   1.0000000
N2   N   0.722234804020842   0.611109137568198   0.875000000000000   1.0000000
N2   N   0.555540513873131   0.111099360116582   0.875000000000000   1.0000000
N2   N   0.888888888888886   0.111111111111114   0.875000000000000   1.0000000
B2   B   0.108736979472953   0.053637080601931   0.375000000000000   1.0000000
B2   B   0.624123666113976   0.581580665561254   0.375000000000000   1.0000000
B2   B   0.443967983005843   0.053900605915525   0.375000000000000   1.0000000
B2   B   0.946099394084448   0.556032016994192   0.375000000000000   1.0000000
B2   B   0.778305653823778   0.055819493578537   0.375000000000000   1.0000000
B2   B   0.111096976164136   0.722215154748748   0.875000000000000   1.0000000
B2   B   0.444450524314976   0.722185999293931   0.875000000000000   1.0000000
B2   B   0.277868236327699   0.222282481656767   0.875000000000000   1.0000000
B2   B   0.777717518343217   0.722131763672256   0.875000000000000   1.0000000
B2   B   0.611080911995751   0.222282481656767   0.875000000000000   1.0000000
B2   B   0.944451914284539   0.222237161902412   0.875000000000000   1.0000000
B2   B   0.277495262935591   0.722504737064369   0.375000000000000   1.0000000
B2   B   0.108509468367494   0.220921400850410   0.375000000000000   1.0000000
B2   B   0.443378345527854   0.220090024389070   0.375000000000000   1.0000000
B2   B   0.612299594203061   0.730182932900012   0.375000000000000   1.0000000
B2   B   0.946099394084448   0.723400710423657   0.375000000000000   1.0000000
B2   B   0.779078599149606   0.220921400850410   0.375000000000000   1.0000000
B2   B   0.111111992113834   0.888888007886190   0.875000000000000   1.0000000
B2   B   0.444442682439019   0.888888007886190   0.875000000000000   1.0000000
B2   B   0.277868236327699   0.388919088004272   0.875000000000000   1.0000000
B2   B   0.611070710269747   0.388929289730227   0.875000000000000   1.0000000
B2   B   0.777748132073470   0.888829597480301   0.875000000000000   1.0000000
B2   B   0.944425640354305   0.388905103472982   0.875000000000000   1.0000000
B2   B   0.108736979472953   0.388433232204369   0.375000000000000   1.0000000
B2   B   0.277495262935591   0.888323859204511   0.375000000000000   1.0000000
B2   B   0.611566767795669   0.891263020527083   0.375000000000000   1.0000000
B2   B   0.418419334438744   0.375876333886037   0.375000000000000   1.0000000
B2   B   0.946362919398058   0.891263020527083   0.375000000000000   1.0000000
B2   B   0.784550005363577   0.387700405796944   0.375000000000000   1.0000000
B2   B   0.277814000706070   0.555549475685039   0.875000000000000   1.0000000
B2   B   0.111146129785321   0.055574359645653   0.875000000000000   1.0000000
B2   B   0.611070710269747   0.555474753872875   0.875000000000000   1.0000000
B2   B   0.444450524314976   0.055597858354380   0.875000000000000   1.0000000
B2   B   0.944402141645614   0.555549475685039   0.875000000000000   1.0000000
B2   B   0.111304398111444   0.555942129556248   0.375000000000000   1.0000000
B2   B   0.777762838097596   0.055548085715457   0.875000000000000   1.0000000
B2   B   0.276599289576357   0.053900605915525   0.375000000000000   1.0000000
B2   B   0.443378345527854   0.556621654472084   0.375000000000000   1.0000000
B2   B   0.779909975610956   0.556621654472084   0.375000000000000   1.0000000
B2   B   0.611566767795669   0.053637080601931   0.375000000000000   1.0000000
B2   B   0.444480738410865   0.555519261589146   0.875000000000000   1.0000000
B2   B   0.944180506421487   0.055819493578537   0.375000000000000   1.0000000
B2   B   0.277784845251269   0.722215154748748   0.875000000000000   1.0000000
B2   B   0.111170402519690   0.222251867926514   0.875000000000000   1.0000000
B2   B   0.444480738410865   0.222294810155102   0.875000000000000   1.0000000
B2   B   0.611080911995751   0.722131763672256   0.875000000000000   1.0000000
B2   B   0.944402141645614   0.722185999293931   0.875000000000000   1.0000000
B2   B   0.777748132073470   0.222251867926514   0.875000000000000   1.0000000
B2   B   0.111676140795453   0.722504737064369   0.375000000000000   1.0000000
B2   B   0.443967983005843   0.723400710423657   0.375000000000000   1.0000000
B2   B   0.269817067099964   0.215449994636361   0.375000000000000   1.0000000
B2   B   0.784550005363577   0.730182932900012   0.375000000000000   1.0000000
B2   B   0.612299594203061   0.215449994636361   0.375000000000000   1.0000000
B2   B   0.944180506421487   0.221694346176258   0.375000000000000   1.0000000
B2   B   0.111146129785321   0.388905103472982   0.875000000000000   1.0000000
B2   B   0.277784845251269   0.888903023835867   0.875000000000000   1.0000000
B2   B   0.611094896527015   0.888853870214697   0.875000000000000   1.0000000
B2   B   0.444525246127178   0.388929289730227   0.875000000000000   1.0000000
B2   B   0.944425640354305   0.888853870214697   0.875000000000000   1.0000000
B2   B   0.111304398111444   0.888695601888582   0.375000000000000   1.0000000
B2   B   0.777717518343217   0.388919088004272   0.875000000000000   1.0000000
B2   B   0.444057870443803   0.888695601888582   0.375000000000000   1.0000000
B2   B   0.269817067099964   0.387700405796944   0.375000000000000   1.0000000
B2   B   0.276599289576357   0.556032016994192   0.375000000000000   1.0000000
B2   B   0.624123666113975   0.375876333886037   0.375000000000000   1.0000000
B2   B   0.779078599149606   0.891490531632513   0.375000000000000   1.0000000
B2   B   0.946362919398058   0.388433232204369   0.375000000000000   1.0000000
B2   B   0.111111992113834   0.555557317560987   0.875000000000000   1.0000000
B2   B   0.277814000706070   0.055597858354380   0.875000000000000   1.0000000
B2   B   0.777705189844934   0.555519261589146   0.875000000000000   1.0000000
B2   B   0.611094896527015   0.055574359645653   0.875000000000000   1.0000000
B2   B   0.944451914284539   0.055548085715457   0.875000000000000   1.0000000
B2   B   0.055560033057410   0.111139230227548   0.125263093205935   1.0000000
B2   B   0.555666527436014   0.610954700937097   0.126324437123618   1.0000000
B2   B   0.389011228882066   0.111355791097481   0.125529094471626   1.0000000
B2   B   0.888644208902525   0.610988771117919   0.125529094471626   1.0000000
B2   B   0.722245863836813   0.111139230227548   0.125263093205935   1.0000000
B2   B   0.055459593856827   0.777746043896402   0.625042037266031   1.0000000
B2   B   0.388953116706241   0.777746043896402   0.625042037266031   1.0000000
B2   B   0.222284307402104   0.277808820367737   0.624285372297071   1.0000000
B2   B   0.722191179632250   0.777715692597862   0.624285372297071   1.0000000
B2   B   0.555666527436014   0.278045159832254   0.623675562876410   1.0000000
B2   B   0.888860769772430   0.277754136163193   0.624736906794065   1.0000000
B2   B   0.222222222222221   0.777777777777779   0.125057527554294   1.0000000
B2   B   0.055560033057410   0.277754136163193   0.125263093205935   1.0000000
B2   B   0.389045299062947   0.278045159832254   0.126324437123618   1.0000000
B2   B   0.555627120180738   0.777710681410335   0.125310117107949   1.0000000
B2   B   0.888750227896232   0.777710681410335   0.125310117107949   1.0000000
B2   B   0.722191179632250   0.277808820367737   0.125714627702892   1.0000000
B2   B   0.055527545561314   0.944472454438728   0.625029603609144   1.0000000
B2   B   0.388953116706241   0.944540406143198   0.625042037266031   1.0000000
B2   B   0.222289318589711   0.444372879819275   0.624689882892060   1.0000000
B2   B   0.555555555555557   0.444444444444443   0.620889141215681   1.0000000
B2   B   0.722245863836813   0.944439966942603   0.624736906794065   1.0000000
B2   B   0.888750227896232   0.444372879819275   0.624689882892060   1.0000000
B2   B   0.055527545561314   0.444388424455963   0.124970396390802   1.0000000
B2   B   0.222253956103582   0.944540406143198   0.124957962733985   1.0000000
B2   B   0.555611575544029   0.944472454438728   0.124970396390802   1.0000000
B2   B   0.389045299062947   0.444333472564026   0.126324437123618   1.0000000
B2   B   0.888860769772430   0.944439966942603   0.125263093205935   1.0000000
B2   B   0.721954840167762   0.444333472564026   0.126324437123618   1.0000000
B2   B   0.222253956103582   0.611046883293747   0.625042037266031   1.0000000
B2   B   0.055560033057410   0.111139230227548   0.624736906794065   1.0000000
B2   B   0.555666527436014   0.610954700937097   0.623675562876410   1.0000000
B2   B   0.389011228882066   0.111355791097481   0.624470905528352   1.0000000
B2   B   0.888644208902525   0.610988771117919   0.624470905528352   1.0000000
B2   B   0.055459593856827   0.611046883293747   0.124957962733985   1.0000000
B2   B   0.722245863836813   0.111139230227548   0.624736906794065   1.0000000
B2   B   0.222289318589711   0.111249772103783   0.125310117107949   1.0000000
B2   B   0.389011228882066   0.610988771117919   0.125529094471626   1.0000000
B2   B   0.721954840167762   0.610954700937097   0.126324437123618   1.0000000
B2   B   0.555627120180738   0.111249772103783   0.125310117107949   1.0000000
B2   B   0.389011228882066   0.610988771117919   0.624470905528352   1.0000000
B2   B   0.888888888888886   0.111111111111114   0.125322581319518   1.0000000
B2   B   0.222222222222221   0.777777777777779   0.624942472445667   1.0000000
B2   B   0.055560033057410   0.277754136163193   0.624736906794065   1.0000000
B2   B   0.389045299062947   0.278045159832254   0.623675562876410   1.0000000
B2   B   0.555627120180738   0.777710681410335   0.624689882892060   1.0000000
B2   B   0.888750227896232   0.777710681410335   0.624689882892060   1.0000000
B2   B   0.722191179632250   0.277808820367737   0.624285372297071   1.0000000
B2   B   0.055459593856827   0.777746043896402   0.124957962733985   1.0000000
B2   B   0.388953116706241   0.777746043896402   0.124957962733985   1.0000000
B2   B   0.222284307402104   0.277808820367737   0.125714627702892   1.0000000
B2   B   0.722191179632250   0.777715692597862   0.125714627702892   1.0000000
B2   B   0.555666527436014   0.278045159832254   0.126324437123618   1.0000000
B2   B   0.888860769772430   0.277754136163193   0.125263093205935   1.0000000
B2   B   0.055527545561314   0.444388424455963   0.625029603609144   1.0000000
B2   B   0.222253956103582   0.944540406143198   0.625042037266031   1.0000000
B2   B   0.555611575544029   0.944472454438728   0.625029603609144   1.0000000
B2   B   0.389045299062947   0.444333472564026   0.623675562876410   1.0000000
B2   B   0.888860769772430   0.944439966942603   0.624736906794065   1.0000000
B2   B   0.055527545561314   0.944472454438728   0.124970396390802   1.0000000
B2   B   0.721954840167762   0.444333472564026   0.623675562876410   1.0000000
B2   B   0.388953116706241   0.944540406143198   0.124957962733985   1.0000000
B2   B   0.222289318589711   0.444372879819275   0.125310117107949   1.0000000
B2   B   0.222253956103582   0.611046883293747   0.124957962733985   1.0000000
B2   B   0.555555555555557   0.444444444444443   0.129110858784294   1.0000000
B2   B   0.722245863836813   0.944439966942603   0.125263093205935   1.0000000
B2   B   0.888750227896232   0.444372879819275   0.125310117107949   1.0000000
B2   B   0.055459593856827   0.611046883293747   0.625042037266031   1.0000000
B2   B   0.222289318589711   0.111249772103783   0.624689882892060   1.0000000
B2   B   0.721954840167762   0.610954700937097   0.623675562876410   1.0000000
B2   B   0.555627120180738   0.111249772103783   0.624689882892060   1.0000000
B2   B   0.888888888888886   0.111111111111114   0.624677418680499   1.0000000


