data_1
_audit_creation_method   'vasp2cif'
_cell_length_a    14.93631414619966
_cell_length_b    14.936314146199727
_cell_length_c    13.341276283792837
_cell_angle_alpha    90.0
_cell_angle_beta    90.0
_cell_angle_gamma    119.99999999999984

_symmetry_space_group_name_H-M    'P 1'
loop_
_atom_site_label
_atom_site_type_symbol
_atom_site_fract_x
_atom_site_fract_y
_atom_site_fract_z
_atom_site_occupancy
C2   C   0.444719412058525   0.386721264552998   0.375000000000000   1.0000000
C2   C   0.547693112997086   0.439857040735213   0.375000000000000   1.0000000
N2   N   0.110932886388867   0.055482166074812   0.124736363788348   1.0000000
N2   N   0.611019497156267   0.555498967311578   0.126200941953294   1.0000000
N2   N   0.444324144446521   0.055516051727236   0.125554392773576   1.0000000
N2   N   0.944327179845776   0.555507196142591   0.125761084187384   1.0000000
N2   N   0.777671892312824   0.055486249042694   0.124713057117772   1.0000000
N2   N   0.110984696314948   0.722176808311944   0.625168752655711   1.0000000
N2   N   0.444348784009614   0.722146259039577   0.625371346291517   1.0000000
N2   N   0.277565056116810   0.222112439669432   0.625007925050469   1.0000000
N2   N   0.777693526620402   0.722210383443923   0.624772904472049   1.0000000
N2   N   0.611010672344054   0.222163181844045   0.622873435507851   1.0000000
N2   N   0.944318692075251   0.222133567710087   0.625353080385274   1.0000000
N2   N   0.277667501671677   0.722164810743592   0.124620899438258   1.0000000
N2   N   0.110930464889041   0.222115629300073   0.124597642401244   1.0000000
N2   N   0.444255105054037   0.222145229216677   0.126339997102702   1.0000000
N2   N   0.611020496347291   0.722149949593678   0.124898082072139   1.0000000
N2   N   0.944335956750858   0.722212726181130   0.125178863490496   1.0000000
N2   N   0.777683716565915   0.222146944141972   0.125572298095757   1.0000000
N2   N   0.110972926171181   0.888857285236240   0.625222570529928   1.0000000
N2   N   0.444344627095952   0.888846698932704   0.625192654469587   1.0000000
N2   N   0.277618200811957   0.388766899848766   0.625186630213092   1.0000000
N2   N   0.610984536641144   0.388843698799607   0.622605184956547   1.0000000
N2   N   0.777673800537077   0.888844989033135   0.625264911109561   1.0000000
N2   N   0.944324731627122   0.388810175930707   0.624748939505172   1.0000000
N2   N   0.110975112626453   0.388796614629569   0.124589127188986   1.0000000
N2   N   0.277654361650135   0.888852421862775   0.124813467382414   1.0000000
N2   N   0.611012257052117   0.888831369207259   0.124689812206801   1.0000000
N2   N   0.444230923584953   0.388750856445748   0.125599521986508   1.0000000
N2   N   0.944323915429780   0.888867694128055   0.124808850653998   1.0000000
N2   N   0.777684013850042   0.388812538573778   0.127262500266201   1.0000000
N2   N   0.277665599960890   0.555465621652746   0.625415614873067   1.0000000
N2   N   0.110932886388867   0.055482166074812   0.625263636211700   1.0000000
N2   N   0.611019497156267   0.555498967311578   0.623799058046701   1.0000000
N2   N   0.444324144446521   0.055516051727236   0.624445607226489   1.0000000
N2   N   0.944327179845776   0.555507196142591   0.624238915812594   1.0000000
N2   N   0.110985682397512   0.555483899807447   0.124729117225827   1.0000000
N2   N   0.777671892312824   0.055486249042694   0.625286942882265   1.0000000
N2   N   0.277613511667859   0.055504080785921   0.124977997917227   1.0000000
N2   N   0.444343819963421   0.555454064849750   0.125041343347028   1.0000000
N2   N   0.777697765851026   0.555571103524657   0.126802069358760   1.0000000
N2   N   0.611016026667649   0.055512303221494   0.125272973919888   1.0000000
N2   N   0.444343819963421   0.555454064849750   0.624958656652965   1.0000000
N2   N   0.944304172282186   0.055485283616056   0.124654602790073   1.0000000
N2   N   0.277667501671677   0.722164810743592   0.625379100561749   1.0000000
N2   N   0.110930464889041   0.222115629300073   0.625402357598806   1.0000000
N2   N   0.444255105054037   0.222145229216677   0.623660002897221   1.0000000
N2   N   0.611020496347291   0.722149949593678   0.625101917927795   1.0000000
N2   N   0.944335956750858   0.722212726181130   0.624821136509556   1.0000000
N2   N   0.777683716565915   0.222146944141972   0.624427701904237   1.0000000
N2   N   0.110984696314948   0.722176808311944   0.124831247344243   1.0000000
N2   N   0.444348784009614   0.722146259039577   0.124628653708510   1.0000000
N2   N   0.277565056116810   0.222112439669432   0.124992074949621   1.0000000
N2   N   0.777693526620402   0.722210383443923   0.125227095527982   1.0000000
N2   N   0.611010672344054   0.222163181844045   0.127126564492132   1.0000000
N2   N   0.944318692075251   0.222133567710087   0.124646919614816   1.0000000
N2   N   0.110975112626453   0.388796614629569   0.625410872811055   1.0000000
N2   N   0.277654361650135   0.888852421862775   0.625186532617549   1.0000000
N2   N   0.611012257052117   0.888831369207259   0.625310187793151   1.0000000
N2   N   0.444230923584953   0.388750856445748   0.624400478013522   1.0000000
N2   N   0.944323915429780   0.888867694128055   0.625191149346038   1.0000000
N2   N   0.110972926171181   0.888857285236240   0.124777429470120   1.0000000
N2   N   0.777684013850042   0.388812538573778   0.622737499733713   1.0000000
N2   N   0.444344627095952   0.888846698932704   0.124807345530507   1.0000000
N2   N   0.277618200811957   0.388766899848766   0.124813369786946   1.0000000
N2   N   0.277665599960890   0.555465621652746   0.124584385126913   1.0000000
N2   N   0.610984536641144   0.388843698799607   0.127394815043386   1.0000000
N2   N   0.777673800537077   0.888844989033135   0.124735088890389   1.0000000
N2   N   0.944324731627122   0.388810175930707   0.125251060494696   1.0000000
N2   N   0.110985682397512   0.555483899807447   0.625270882774304   1.0000000
N2   N   0.277613511667859   0.055504080785921   0.625022002082831   1.0000000
N2   N   0.777697765851026   0.555571103524657   0.623197930641169   1.0000000
N2   N   0.611016026667649   0.055512303221494   0.624727026080100   1.0000000
N2   N   0.944304172282186   0.055485283616056   0.625345397209919   1.0000000
N2   N   0.055262979283148   0.111190788188329   0.375000000000000   1.0000000
N2   N   0.556802595912035   0.611458049158281   0.375000000000000   1.0000000
N2   N   0.386654334513063   0.109277107458846   0.375000000000000   1.0000000
N2   N   0.893527144553971   0.614534903315449   0.375000000000000   1.0000000
N2   N   0.722250619111340   0.111717571248242   0.375000000000000   1.0000000
N2   N   0.055237086692135   0.777619535278359   0.875000000000000   1.0000000
N2   N   0.388578637545287   0.777641346007377   0.875000000000000   1.0000000
N2   N   0.221903586148081   0.277648229919328   0.875000000000000   1.0000000
N2   N   0.721903143987162   0.777630414420512   0.875000000000000   1.0000000
N2   N   0.555221811626416   0.277627942608301   0.875000000000000   1.0000000
N2   N   0.888564456689082   0.277646785163313   0.875000000000000   1.0000000
N2   N   0.223727269982378   0.777911364149014   0.375000000000000   1.0000000
N2   N   0.055508503483167   0.278045055198925   0.375000000000000   1.0000000
N2   N   0.387026068242663   0.278705062613065   0.375000000000000   1.0000000
N2   N   0.556192852173743   0.777797648049263   0.375000000000000   1.0000000
N2   N   0.890543710380703   0.779202950817940   0.375000000000000   1.0000000
N2   N   0.722290972832357   0.278979886428887   0.375000000000000   1.0000000
N2   N   0.055236166457310   0.944292373776473   0.875000000000000   1.0000000
N2   N   0.388566750759156   0.944294817167554   0.875000000000000   1.0000000
N2   N   0.221908177858999   0.444321312566313   0.875000000000000   1.0000000
N2   N   0.555225359409234   0.444297962150969   0.875000000000000   1.0000000
N2   N   0.721901657192111   0.944304132991482   0.875000000000000   1.0000000
N2   N   0.888563804116041   0.444301361625902   0.875000000000000   1.0000000
N2   N   0.057502528830374   0.445031489549868   0.375000000000000   1.0000000
N2   N   0.222433269086954   0.944038422292149   0.375000000000000   1.0000000
N2   N   0.555848771054229   0.944259616933350   0.375000000000000   1.0000000
N2   N   0.389048545813264   0.441460353859403   0.375000000000000   1.0000000
N2   N   0.889241186421301   0.945037285413659   0.375000000000000   1.0000000
N2   N   0.728588316315718   0.449582999123484   0.375000000000000   1.0000000
N2   N   0.221909283021712   0.610977609862293   0.875000000000000   1.0000000
N2   N   0.055238305875300   0.110972154539813   0.875000000000000   1.0000000
N2   N   0.555233983612907   0.610965459703609   0.875000000000000   1.0000000
N2   N   0.388560784751097   0.110958455750093   0.875000000000000   1.0000000
N2   N   0.888565683948111   0.610954891147369   0.875000000000000   1.0000000
N2   N   0.058232143953671   0.612156017538209   0.375000000000000   1.0000000
N2   N   0.721891930357642   0.110970143454051   0.875000000000000   1.0000000
N2   N   0.222050613523690   0.111234537544341   0.375000000000000   1.0000000
N2   N   0.390074570185440   0.609835781723656   0.375000000000000   1.0000000
N2   N   0.724606611854032   0.613136155785408   0.375000000000000   1.0000000
N2   N   0.555256367376202   0.110524070866130   0.375000000000000   1.0000000
N2   N   0.388577737986164   0.610979861946466   0.875000000000000   1.0000000
N2   N   0.888869530918112   0.111594642463830   0.375000000000000   1.0000000
N2   N   0.221907366806914   0.777626991162902   0.875000000000000   1.0000000
N2   N   0.055237720371581   0.277652848148566   0.875000000000000   1.0000000
N2   N   0.388560009117402   0.277634836891291   0.875000000000000   1.0000000
N2   N   0.555241662965056   0.777638986077640   0.875000000000000   1.0000000
N2   N   0.888569578671178   0.777623162360973   0.875000000000000   1.0000000
N2   N   0.721887107706469   0.277631560206109   0.875000000000000   1.0000000
N2   N   0.057808229789302   0.779079626454653   0.375000000000000   1.0000000
N2   N   0.389893559826420   0.777226896655841   0.375000000000000   1.0000000
N2   N   0.220973425555215   0.277246422264372   0.375000000000000   1.0000000
N2   N   0.723032621655036   0.778605049401331   0.375000000000000   1.0000000
N2   N   0.551188728528180   0.274478122630750   0.375000000000000   1.0000000
N2   N   0.889223202728541   0.278483617913244   0.375000000000000   1.0000000
N2   N   0.055237128612786   0.444317143198430   0.875000000000000   1.0000000
N2   N   0.221900371722423   0.944287298047012   0.875000000000000   1.0000000
N2   N   0.555232044780461   0.944304002053259   0.875000000000000   1.0000000
N2   N   0.388569938231943   0.444313714169480   0.875000000000000   1.0000000
N2   N   0.888573292223055   0.944300311667603   0.875000000000000   1.0000000
N2   N   0.056267977042679   0.945071495332561   0.375000000000000   1.0000000
N2   N   0.721896453650585   0.444296221111830   0.875000000000000   1.0000000
N2   N   0.389214674572376   0.943917533608658   0.375000000000000   1.0000000
N2   N   0.223531533257706   0.444344706176223   0.375000000000000   1.0000000
N2   N   0.224009651296533   0.611184509137079   0.375000000000000   1.0000000
N2   N   0.722497027408030   0.944955865465784   0.375000000000000   1.0000000
N2   N   0.892125687438024   0.445893456281969   0.375000000000000   1.0000000
N2   N   0.055234777502759   0.610962743398036   0.875000000000000   1.0000000
N2   N   0.221898718463522   0.110962717951846   0.875000000000000   1.0000000
N2   N   0.721893933543130   0.610956542254595   0.875000000000000   1.0000000
N2   N   0.555221110697980   0.110960722552391   0.875000000000000   1.0000000
N2   N   0.888569505435589   0.110976056615872   0.875000000000000   1.0000000
B2   B   0.111540767722298   0.056069547091868   0.375000000000000   1.0000000
B2   B   0.613545769348938   0.554960273068256   0.375000000000000   1.0000000
B2   B   0.444709638237904   0.056217734981244   0.375000000000000   1.0000000
B2   B   0.946167739068164   0.556477216858523   0.375000000000000   1.0000000
B2   B   0.777458338176245   0.056510057642306   0.375000000000000   1.0000000
B2   B   0.110757919708079   0.722040313326246   0.875000000000000   1.0000000
B2   B   0.444143058415372   0.722077842256782   0.875000000000000   1.0000000
B2   B   0.277557487314354   0.222124639856300   0.875000000000000   1.0000000
B2   B   0.777410361819703   0.721959438738634   0.875000000000000   1.0000000
B2   B   0.610774720797671   0.222158589444103   0.875000000000000   1.0000000
B2   B   0.944088663024182   0.222124094486936   0.875000000000000   1.0000000
B2   B   0.279039101037218   0.722191190953058   0.375000000000000   1.0000000
B2   B   0.110509978172741   0.222197421844398   0.375000000000000   1.0000000
B2   B   0.446954805947478   0.222903623050032   0.375000000000000   1.0000000
B2   B   0.611923330419812   0.722174933830661   0.375000000000000   1.0000000
B2   B   0.946543444415454   0.723364365108038   0.375000000000000   1.0000000
B2   B   0.776641120861596   0.224275114909315   0.375000000000000   1.0000000
B2   B   0.110795442884052   0.888714166606230   0.875000000000000   1.0000000
B2   B   0.444137570137466   0.888790152628143   0.875000000000000   1.0000000
B2   B   0.277527825821522   0.388775709695564   0.875000000000000   1.0000000
B2   B   0.610799290843757   0.388733673628729   0.875000000000000   1.0000000
B2   B   0.777430953420190   0.888702985589311   0.875000000000000   1.0000000
B2   B   0.944050534401065   0.388771147720195   0.875000000000000   1.0000000
B2   B   0.112146844875160   0.389187707490990   0.375000000000000   1.0000000
B2   B   0.278667648239128   0.889033576059904   0.375000000000000   1.0000000
B2   B   0.611370839403132   0.889070663401187   0.375000000000000   1.0000000
B2   B   0.945069474399645   0.889367182764806   0.375000000000000   1.0000000
B2   B   0.777274935515712   0.392989105224414   0.375000000000000   1.0000000
B2   B   0.277480180225230   0.555426584563847   0.875000000000000   1.0000000
B2   B   0.110832882020633   0.055418749348781   0.875000000000000   1.0000000
B2   B   0.610786295214589   0.555306548906342   0.875000000000000   1.0000000
B2   B   0.444165184634245   0.055490608607581   0.875000000000000   1.0000000
B2   B   0.944031488441879   0.555356444405965   0.875000000000000   1.0000000
B2   B   0.112729379826038   0.556015664636612   0.375000000000000   1.0000000
B2   B   0.777420702039649   0.055448459626834   0.875000000000000   1.0000000
B2   B   0.277792627603004   0.055238809771836   0.375000000000000   1.0000000
B2   B   0.446337779832468   0.553891101101882   0.375000000000000   1.0000000
B2   B   0.779910097425400   0.554001317696927   0.375000000000000   1.0000000
B2   B   0.610766632702923   0.056337204868702   0.375000000000000   1.0000000
B2   B   0.444170120080932   0.555384429174546   0.875000000000000   1.0000000
B2   B   0.944241346532948   0.055955095058928   0.375000000000000   1.0000000
B2   B   0.277465950364258   0.722089061842078   0.875000000000000   1.0000000
B2   B   0.110825891653567   0.222115867219349   0.875000000000000   1.0000000
B2   B   0.444220711696222   0.222150761716089   0.875000000000000   1.0000000
B2   B   0.610783876500134   0.722010473224173   0.875000000000000   1.0000000
B2   B   0.944062081974267   0.721976489478764   0.875000000000000   1.0000000
B2   B   0.777390624634289   0.222143355779403   0.875000000000000   1.0000000
B2   B   0.112678890681960   0.722745417449938   0.375000000000000   1.0000000
B2   B   0.445303026954749   0.721313877558064   0.375000000000000   1.0000000
B2   B   0.277689357299913   0.222779860367167   0.375000000000000   1.0000000
B2   B   0.778702699309502   0.722179570140643   0.375000000000000   1.0000000
B2   B   0.608655165383033   0.225648023421267   0.375000000000000   1.0000000
B2   B   0.943976093239671   0.223026650903996   0.375000000000000   1.0000000
B2   B   0.110783938497521   0.388781324529052   0.875000000000000   1.0000000
B2   B   0.277482338902535   0.888765756488023   0.875000000000000   1.0000000
B2   B   0.610778357676294   0.888757574695281   0.875000000000000   1.0000000
B2   B   0.444219654338629   0.388752383339630   0.875000000000000   1.0000000
B2   B   0.944103146813101   0.888681365474825   0.875000000000000   1.0000000
B2   B   0.112059297257076   0.889370283367042   0.375000000000000   1.0000000
B2   B   0.777367886323000   0.388750068094365   0.875000000000000   1.0000000
B2   B   0.444980671981673   0.888791547102773   0.375000000000000   1.0000000
B2   B   0.278206352493401   0.387832658034085   0.375000000000000   1.0000000
B2   B   0.279249855970130   0.555328405502669   0.375000000000000   1.0000000
B2   B   0.778007157009950   0.889250964731887   0.375000000000000   1.0000000
B2   B   0.945501507403036   0.390073390827987   0.375000000000000   1.0000000
B2   B   0.110752565939898   0.555413759937789   0.875000000000000   1.0000000
B2   B   0.277533530408059   0.055455237833399   0.875000000000000   1.0000000
B2   B   0.777377891794022   0.555298412059963   0.875000000000000   1.0000000
B2   B   0.610770717030356   0.055485068257769   0.875000000000000   1.0000000
B2   B   0.944119695969943   0.055417721818163   0.875000000000000   1.0000000
B2   B   0.055420708212376   0.111029953638582   0.125001292251906   1.0000000
B2   B   0.555621939917538   0.610803452702241   0.125920148300052   1.0000000
B2   B   0.389007468202270   0.111416905970227   0.126449441972215   1.0000000
B2   B   0.888413503655710   0.610816222374297   0.126853331090051   1.0000000
B2   B   0.722103809870532   0.111235225527983   0.125716468751794   1.0000000
B2   B   0.055280456967080   0.777653871868347   0.624661876892054   1.0000000
B2   B   0.388836904049516   0.777779615489623   0.625014869308209   1.0000000
B2   B   0.222170744674328   0.277650010156172   0.624858180264606   1.0000000
B2   B   0.722151755526939   0.777584887542366   0.624619480808896   1.0000000
B2   B   0.555641238953935   0.278095331455782   0.620206059153457   1.0000000
B2   B   0.888598312291093   0.277736797264149   0.624301703225063   1.0000000
B2   B   0.222051181078217   0.777762025908176   0.125078715984472   1.0000000
B2   B   0.055361486548964   0.277669051776565   0.124945000889729   1.0000000
B2   B   0.389043884163438   0.277797145105723   0.126564077299102   1.0000000
B2   B   0.555541725075803   0.777676217579667   0.125046465725620   1.0000000
B2   B   0.888667306650107   0.777580891912061   0.125585206148622   1.0000000
B2   B   0.721972819607195   0.277907500093578   0.128028376848343   1.0000000
B2   B   0.055399165964755   0.944375354812095   0.624851908750923   1.0000000
B2   B   0.388894707309583   0.944651973556636   0.624528178567281   1.0000000
B2   B   0.222111997480175   0.444280261205170   0.625039442141848   1.0000000
B2   B   0.555612752191467   0.444106644595613   0.621281500510694   1.0000000
B2   B   0.722137963486136   0.944422036873417   0.624941171765114   1.0000000
B2   B   0.888367469015468   0.444254391382560   0.622927114120839   1.0000000
B2   B   0.055233285906980   0.444297381273725   0.125224585897810   1.0000000
B2   B   0.222150097492103   0.944527906304424   0.125249522774689   1.0000000
B2   B   0.555535605622335   0.944583629863130   0.125303435512046   1.0000000
B2   B   0.388991582861249   0.444185063268045   0.125649691198511   1.0000000
B2   B   0.888748509935711   0.944343364096271   0.125093896148384   1.0000000
B2   B   0.721776407181774   0.444211133872194   0.130252149196617   1.0000000
B2   B   0.222035638049725   0.610990934672922   0.625070245467264   1.0000000
B2   B   0.055420708212376   0.111029953638582   0.624998707748079   1.0000000
B2   B   0.555621939917538   0.610803452702241   0.624079851699912   1.0000000
B2   B   0.389007468202270   0.111416905970227   0.623550558027929   1.0000000
B2   B   0.888413503655710   0.610816222374297   0.623146668909913   1.0000000
B2   B   0.055159183435868   0.610927499010668   0.125537749151163   1.0000000
B2   B   0.722103809870532   0.111235225527983   0.624283531248271   1.0000000
B2   B   0.222193796185259   0.111126978577133   0.125351440276394   1.0000000
B2   B   0.388884958106088   0.610933048901888   0.125050415563363   1.0000000
B2   B   0.722050897153443   0.610747586757826   0.127165971317627   1.0000000
B2   B   0.555589859680560   0.111471726963021   0.126881117731539   1.0000000
B2   B   0.388884958106088   0.610933048901888   0.624949584436725   1.0000000
B2   B   0.888724729662000   0.111073957872845   0.125033608007501   1.0000000
B2   B   0.222051181078217   0.777762025908176   0.624921284015578   1.0000000
B2   B   0.055361486548964   0.277669051776565   0.625054999110201   1.0000000
B2   B   0.389043884163438   0.277797145105723   0.623435922700868   1.0000000
B2   B   0.555541725075803   0.777676217579667   0.624953534274457   1.0000000
B2   B   0.888667306650106   0.777580891912061   0.624414793851332   1.0000000
B2   B   0.721972819607195   0.277907500093578   0.621971623151779   1.0000000
B2   B   0.055280456967080   0.777653871868347   0.125338123108008   1.0000000
B2   B   0.388836904049516   0.777779615489623   0.124985130691757   1.0000000
B2   B   0.222170744674328   0.277650010156172   0.125141819735347   1.0000000
B2   B   0.722151755526939   0.777584887542366   0.125380519191146   1.0000000
B2   B   0.555641238953935   0.278095331455782   0.129793940846442   1.0000000
B2   B   0.888598312291093   0.277736797264149   0.125698296774985   1.0000000
B2   B   0.055233285906980   0.444297381273725   0.624775414102308   1.0000000
B2   B   0.222150097492103   0.944527906304424   0.624750477225296   1.0000000
B2   B   0.555535605622335   0.944583629863130   0.624696564488063   1.0000000
B2   B   0.388991582861249   0.444185063268045   0.624350308801577   1.0000000
B2   B   0.888748509935711   0.944343364096271   0.624906103851722   1.0000000
B2   B   0.055399165964755   0.944375354812095   0.125148091249145   1.0000000
B2   B   0.721776407181774   0.444211133872194   0.619747850803452   1.0000000
B2   B   0.388894707309583   0.944651973556636   0.125471821432685   1.0000000
B2   B   0.222111997480175   0.444280261205170   0.124960557858090   1.0000000
B2   B   0.222035638049725   0.610990934672922   0.124929754532776   1.0000000
B2   B   0.555612752191467   0.444106644595613   0.128718499489271   1.0000000
B2   B   0.722137963486136   0.944422036873417   0.125058828234961   1.0000000
B2   B   0.888367469015468   0.444254391382560   0.127072885879224   1.0000000
B2   B   0.055159183435868   0.610927499010668   0.624462250848784   1.0000000
B2   B   0.222193796185259   0.111126978577133   0.624648559723590   1.0000000
B2   B   0.722050897153443   0.610747586757826   0.622834028682382   1.0000000
B2   B   0.555589859680560   0.111471726963021   0.623118882268379   1.0000000
B2   B   0.888724729662000   0.111073957872845   0.624966391992515   1.0000000


