data_1
_audit_creation_method   'vasp2cif'
_cell_length_a    17.52789999999977
_cell_length_b    17.52789999999977
_cell_length_c    15.0
_cell_angle_alpha    90.0
_cell_angle_beta    90.0
_cell_angle_gamma    119.99999999999916

_symmetry_space_group_name_H-M    'P 1'
loop_
_atom_site_label
_atom_site_type_symbol
_atom_site_fract_x
_atom_site_fract_y
_atom_site_fract_z
_atom_site_occupancy
B2   B   0.906023548498318   0.956545413220237   0.123727924127902   1.0000000
B2   B   0.905401377707682   0.099173121511635   0.121969080706669   1.0000000
B2   B   0.905206383226746   0.241951211262779   0.117895291990781   1.0000000
B2   B   0.905262027308926   0.384776912270760   0.113835005801910   1.0000000
B2   B   0.905897317236847   0.527725874515238   0.112797859017529   1.0000000
B2   B   0.906790578959729   0.670808863330904   0.115723556160980   1.0000000
B2   B   0.906873630448147   0.814014852800003   0.121828182260013   1.0000000
B2   B   0.048684303259225   0.955912227370303   0.124002791945636   1.0000000
B2   B   0.048035185027594   0.098575666431774   0.123403989012251   1.0000000
B2   B   0.047871836359917   0.241610001726503   0.119926888776916   1.0000000
B2   B   0.048027412347602   0.384522152345838   0.116073944590578   1.0000000
B2   B   0.048485986408646   0.527433153449801   0.114548977724558   1.0000000
B2   B   0.049032225098831   0.670320834176898   0.116666244860798   1.0000000
B2   B   0.049075201864840   0.813168084365809   0.121017468557821   1.0000000
B2   B   0.191408723610100   0.955509816349647   0.120732184205867   1.0000000
B2   B   0.190531266845001   0.097697246375124   0.121252618034347   1.0000000
B2   B   0.189927889159183   0.240407204169094   0.117954838642913   1.0000000
B2   B   0.190523981288167   0.384091156738522   0.113798726879986   1.0000000
B2   B   0.191109786151758   0.527217242817073   0.111878293623552   1.0000000
B2   B   0.191642757620387   0.670105263539575   0.113759949774805   1.0000000
B2   B   0.191680509564626   0.812892544520342   0.117732718346337   1.0000000
B2   B   0.334274389069944   0.955560033316981   0.116444225932216   1.0000000
B2   B   0.333758266254118   0.097787018027721   0.115330770668219   1.0000000
B2   B   0.331747530227367   0.238493046126830   0.110179283196691   1.0000000
B2   B   0.331737847055571   0.381689199837494   0.104023325609166   1.0000000
B2   B   0.334166703925053   0.527485774813778   0.104484161552638   1.0000000
B2   B   0.334471754604132   0.670095086616236   0.108430348162100   1.0000000
B2   B   0.334443084657137   0.812887480565695   0.113784409660198   1.0000000
B2   B   0.477154644580630   0.956061742253584   0.114690834931088   1.0000000
B2   B   0.476874882193049   0.098664699764036   0.112672036820316   1.0000000
B2   B   0.476183025213524   0.240654072300062   0.104005358236554   1.0000000
B2   B   0.469205647588877   0.374905059013323   0.077801162339174   1.0000000
B2   B   0.477107812642043   0.670361741540893   0.104820243276859   1.0000000
B2   B   0.477360267418021   0.813410418588290   0.112273208383977   1.0000000
B2   B   0.620058312061418   0.956513778291148   0.116584657259683   1.0000000
B2   B   0.619802699523704   0.099281319515964   0.114016707463423   1.0000000
B2   B   0.619548697533969   0.242122888005850   0.107129458212223   1.0000000
B2   B   0.619446195765216   0.385158334416073   0.093220434974323   1.0000000
B2   B   0.629704477826926   0.535422582583757   0.077960692983863   1.0000000
B2   B   0.622930368137766   0.672836481203010   0.104565410548713   1.0000000
B2   B   0.620478654634928   0.813975499689434   0.114543865007949   1.0000000
B2   B   0.762945177463866   0.956666934711215   0.120472982542099   1.0000000
B2   B   0.762604557442210   0.099327734588763   0.118134793515667   1.0000000
B2   B   0.762430394622483   0.242104353258090   0.112908533522818   1.0000000
B2   B   0.762414280883058   0.384988916040359   0.107161312268484   1.0000000
B2   B   0.763932913684959   0.528420461146938   0.104202136923929   1.0000000
B2   B   0.766097511835234   0.672825853128833   0.110664138417420   1.0000000
B2   B   0.764183728835393   0.814627859407602   0.118743016879780   1.0000000
N2   N   0.953768047604503   0.908882452580292   0.124261050213457   1.0000000
N2   N   0.953076319305520   0.051506617507451   0.123856611048921   1.0000000
N2   N   0.952726073872850   0.194272416197264   0.120587644061663   1.0000000
N2   N   0.952706143949880   0.337101167515153   0.116269070440274   1.0000000
N2   N   0.953118451640435   0.479940804670655   0.113898047917813   1.0000000
N2   N   0.953794887009423   0.622832366444111   0.115317546677690   1.0000000
N2   N   0.953987439077576   0.765832340121404   0.120418161588079   1.0000000
N2   N   0.096333831493010   0.908248383465532   0.122787391367699   1.0000000
N2   N   0.095685891355150   0.050817654040865   0.123907188217922   1.0000000
N2   N   0.095108305807352   0.193501315233085   0.121407803091982   1.0000000
N2   N   0.095292682401569   0.336664003301514   0.117260671232070   1.0000000
N2   N   0.095771188054015   0.479683494269818   0.114367698526309   1.0000000
N2   N   0.096338222850433   0.622605243562808   0.115096147363124   1.0000000
N2   N   0.096507523696556   0.765453776450284   0.118883867603052   1.0000000
N2   N   0.239128589307510   0.908074411240190   0.118661039608370   1.0000000
N2   N   0.238729607348691   0.050590906370009   0.119912352431492   1.0000000
N2   N   0.237493677404336   0.192437514561384   0.118464168801707   1.0000000
N2   N   0.236762764510979   0.334986910807430   0.113264179100788   1.0000000
N2   N   0.238035524534927   0.479235407343555   0.110224669750658   1.0000000
N2   N   0.239046257148557   0.622510463689170   0.110837539102270   1.0000000
N2   N   0.239202972929384   0.765349354893031   0.114995104171114   1.0000000
N2   N   0.381969045036801   0.908214354031234   0.115048692795945   1.0000000
N2   N   0.381755077680726   0.050789234671165   0.115031216863670   1.0000000
N2   N   0.381104475747744   0.192797138081274   0.109867693068290   1.0000000
N2   N   0.378199030487163   0.332455464753547   0.098493972176123   1.0000000
N2   N   0.373060413771517   0.473869351819892   0.102157243737243   1.0000000
N2   N   0.381902101993673   0.622676196141269   0.103897790599991   1.0000000
N2   N   0.382062569478267   0.765502965012756   0.110989921005294   1.0000000
N2   N   0.524896549921498   0.908760888460391   0.114774791655370   1.0000000
N2   N   0.524640470169656   0.051427400978896   0.113984095622074   1.0000000
N2   N   0.524346781431967   0.194051018336311   0.108425221647930   1.0000000
N2   N   0.523357229089012   0.335936061421315   0.091245062681434   1.0000000
N2   N   0.530741057041183   0.631490538488902   0.102529391721063   1.0000000
N2   N   0.525339180079156   0.766477107467523   0.110790360983791   1.0000000
N2   N   0.667896151660937   0.909226150404164   0.117951757772532   1.0000000
N2   N   0.667467699510083   0.051831872359153   0.116630537733553   1.0000000
N2   N   0.667192779971608   0.194681467261604   0.111346818806123   1.0000000
N2   N   0.666832003570407   0.337724484131245   0.102461934678633   1.0000000
N2   N   0.668663569325603   0.481253852126483   0.091343451679781   1.0000000
N2   N   0.672148000157692   0.626384716185533   0.098874660346193   1.0000000
N2   N   0.669600487130706   0.767769781624883   0.114115973315348   1.0000000
N2   N   0.811083225411517   0.909455108839839   0.122009619454359   1.0000000
N2   N   0.810293568128944   0.051821379391515   0.120862402449267   1.0000000
N2   N   0.809991094155773   0.194545436191447   0.116633359550666   1.0000000
N2   N   0.809856082057625   0.337349539137009   0.111292705691623   1.0000000
N2   N   0.810503684216539   0.480218905166593   0.108557826402990   1.0000000
N2   N   0.811793511352626   0.623479271773031   0.110198211417888   1.0000000
N2   N   0.812134645885058   0.767051785294781   0.119199465918850   1.0000000
Se2   Se   0.514454566822989   0.490213748796431   0.019669380471798   1.0000000


