data_1
_audit_creation_method   'vasp2cif'
_cell_length_a    17.52789999999977
_cell_length_b    17.52789999999977
_cell_length_c    15.0
_cell_angle_alpha    90.0
_cell_angle_beta    90.0
_cell_angle_gamma    119.99999999999916

_symmetry_space_group_name_H-M    'P 1'
loop_
_atom_site_label
_atom_site_type_symbol
_atom_site_fract_x
_atom_site_fract_y
_atom_site_fract_z
_atom_site_occupancy
B2   B   0.905955813032558   0.953960149742633   0.106380349560257   1.0000000
B2   B   0.905232829078665   0.096176348080185   0.107894063834529   1.0000000
B2   B   0.904861818886506   0.238557846403723   0.109401619511361   1.0000000
B2   B   0.904465382643898   0.381031475073292   0.109755335328333   1.0000000
B2   B   0.904040935765700   0.523698024772424   0.111601898334906   1.0000000
B2   B   0.903893492571336   0.666704310168374   0.114607827477047   1.0000000
B2   B   0.905590933009492   0.810857349489974   0.109160891570860   1.0000000
B2   B   0.047691737066207   0.952499220583971   0.107686568096598   1.0000000
B2   B   0.047663378828351   0.095340192691738   0.108241705870401   1.0000000
B2   B   0.047524422201623   0.238201422668732   0.109049898097925   1.0000000
B2   B   0.047268842700107   0.381075441372186   0.109128977967563   1.0000000
B2   B   0.046809005899863   0.523774264705478   0.108876253014044   1.0000000
B2   B   0.046640047560691   0.666341648894590   0.109432619086295   1.0000000
B2   B   0.047083319481730   0.809215629100838   0.109285842748230   1.0000000
B2   B   0.189599141701469   0.951354042269703   0.109222351729555   1.0000000
B2   B   0.189774901062322   0.094134338005999   0.109152374252095   1.0000000
B2   B   0.189459488677690   0.236688905892403   0.108701902372791   1.0000000
B2   B   0.189768195993375   0.380478620762624   0.109143215271960   1.0000000
B2   B   0.189395305982220   0.523901986672575   0.109042758227369   1.0000000
B2   B   0.189685053493636   0.666471914102968   0.108522731059801   1.0000000
B2   B   0.189579318283118   0.808887941739960   0.109040070991945   1.0000000
B2   B   0.332340658508914   0.951236964442691   0.109622578211813   1.0000000
B2   B   0.332027025700363   0.093123848697313   0.109914336811356   1.0000000
B2   B   0.332033807793167   0.235525842882807   0.109056816470624   1.0000000
B2   B   0.330937199364448   0.377225110106180   0.109946792803494   1.0000000
B2   B   0.331185895325734   0.523976840916010   0.113458211020193   1.0000000
B2   B   0.332893663648094   0.667033177270570   0.110290279187293   1.0000000
B2   B   0.332505645897430   0.809243201559676   0.108679236241508   1.0000000
B2   B   0.475556360871415   0.952172625099512   0.108266093245630   1.0000000
B2   B   0.475304631770450   0.093191789503503   0.110126031192696   1.0000000
B2   B   0.474636078508196   0.233430848420597   0.110330136575153   1.0000000
B2   B   0.475958326595125   0.374562695751699   0.108048145678056   1.0000000
B2   B   0.476734996123033   0.671367379011405   0.120924853842886   1.0000000
B2   B   0.475831087908505   0.811162770273823   0.108382098412414   1.0000000
B2   B   0.619169201575811   0.953782452200256   0.106413112066156   1.0000000
B2   B   0.618820844597565   0.094980172739016   0.108973839776713   1.0000000
B2   B   0.618543216696339   0.236231918133612   0.110420592876811   1.0000000
B2   B   0.617116561449449   0.376986231860205   0.113014917049047   1.0000000
B2   B   0.625896108741838   0.676382752898081   0.133522483223069   1.0000000
B2   B   0.620129671492186   0.813170387468712   0.109384550859798   1.0000000
B2   B   0.762802667284468   0.954371343770748   0.105869193529986   1.0000000
B2   B   0.762200468973569   0.096120044749181   0.108072933481988   1.0000000
B2   B   0.761916333993239   0.238172484525444   0.109667129639720   1.0000000
B2   B   0.761491251385531   0.380495187144577   0.111555634112657   1.0000000
B2   B   0.761041495879853   0.524306149298259   0.119103139399532   1.0000000
B2   B   0.762785225644169   0.669679496261907   0.127148555043286   1.0000000
B2   B   0.764579926180376   0.813187411740572   0.110318440180079   1.0000000
Si2   Si   0.485145448437083   0.524083756641654   0.122190824245078   1.0000000
N2   N   0.953012131206193   0.905911378009658   0.106445047302834   1.0000000
N2   N   0.952902134489395   0.048691691184395   0.107342127136266   1.0000000
N2   N   0.952602775279899   0.191104537347497   0.109127113424921   1.0000000
N2   N   0.952358670132488   0.333611511844360   0.109491322237517   1.0000000
N2   N   0.951905374265153   0.476200081545334   0.109671341907035   1.0000000
N2   N   0.951655014331105   0.619040011892693   0.111261673516824   1.0000000
N2   N   0.952104822144759   0.762111774475636   0.110818602543114   1.0000000
N2   N   0.094673175226743   0.904301790697667   0.108460056481835   1.0000000
N2   N   0.094944115246436   0.047456128633720   0.108439986447037   1.0000000
N2   N   0.094789879296604   0.190261969121219   0.108827572881113   1.0000000
N2   N   0.094974705463707   0.333419187211157   0.109042123064644   1.0000000
N2   N   0.094608733675421   0.476265620530303   0.108707464774118   1.0000000
N2   N   0.094586421058640   0.618905416227238   0.108593897352262   1.0000000
N2   N   0.094529234013772   0.761496172075763   0.109187108370985   1.0000000
N2   N   0.237211987297919   0.903819051406092   0.109461480915594   1.0000000
N2   N   0.237004364559752   0.046222172868155   0.109583362756583   1.0000000
N2   N   0.236993102466343   0.189067339049971   0.109006207755685   1.0000000
N2   N   0.236562216323592   0.331799265896947   0.108672151794542   1.0000000
N2   N   0.236883064345909   0.476139258977807   0.109874482007266   1.0000000
N2   N   0.237706588589000   0.619076741869584   0.108735155335660   1.0000000
N2   N   0.237386609760365   0.761485822526741   0.108724639329065   1.0000000
N2   N   0.380283885492623   0.904108889316236   0.108920594882144   1.0000000
N2   N   0.379975588461205   0.045938400498287   0.110165517199902   1.0000000
N2   N   0.379338910972021   0.187626650941252   0.109640060307647   1.0000000
N2   N   0.379328452534710   0.330414528216982   0.108770621957208   1.0000000
N2   N   0.375588840150501   0.473129915054372   0.114643389986787   1.0000000
N2   N   0.381198188426938   0.619732767484947   0.114698006430320   1.0000000
N2   N   0.380558976665701   0.762104366491155   0.108846555613517   1.0000000
N2   N   0.523762859754284   0.905631231134282   0.106776528385066   1.0000000
N2   N   0.523485108601653   0.046671866499296   0.109264040722598   1.0000000
N2   N   0.523119502721095   0.187377880543704   0.110588413189479   1.0000000
N2   N   0.522031877627512   0.326657352714523   0.110482336620329   1.0000000
N2   N   0.529479909303728   0.465954390694663   0.104571661306069   1.0000000
N2   N   0.529466865518989   0.630765634593552   0.136888865291411   1.0000000
N2   N   0.524370431053535   0.765054595362027   0.111509020592571   1.0000000
N2   N   0.667493270176869   0.907359785990675   0.105314474008298   1.0000000
N2   N   0.666968607549961   0.048325467237419   0.107776172997692   1.0000000
N2   N   0.666732486382877   0.189643094169904   0.109705823832571   1.0000000
N2   N   0.666468761244490   0.330778069891140   0.111249277695848   1.0000000
N2   N   0.669470168859619   0.468850829727592   0.117671247355627   1.0000000
N2   N   0.670839320390203   0.629044984746839   0.140606720539296   1.0000000
N2   N   0.669668641484086   0.768293408629595   0.113903885045865   1.0000000
N2   N   0.811115302200186   0.907505857919621   0.105886505360261   1.0000000
N2   N   0.810166302476440   0.049017056434628   0.107040480899036   1.0000000
N2   N   0.809827351148594   0.190968570664291   0.109274758155672   1.0000000
N2   N   0.809541255968028   0.333195552150720   0.110032711273836   1.0000000
N2   N   0.809265441732190   0.476003697416931   0.113760941174012   1.0000000
N2   N   0.809182672665834   0.620268772949877   0.122592021055056   1.0000000
N2   N   0.811344003541444   0.764908560048891   0.112852087528039   1.0000000


