data_1
_audit_creation_method   'vasp2cif'
_cell_length_a    14.93631414619966
_cell_length_b    14.936314146199727
_cell_length_c    13.341276283792837
_cell_angle_alpha    90.0
_cell_angle_beta    90.0
_cell_angle_gamma    119.99999999999984

_symmetry_space_group_name_H-M    'P 1'
loop_
_atom_site_label
_atom_site_type_symbol
_atom_site_fract_x
_atom_site_fract_y
_atom_site_fract_z
_atom_site_occupancy
Sb2   Sb   0.485574907435842   0.409454120384586   0.375000000000000   1.0000000
N2   N   0.111107992805329   0.055524375547863   0.125146327561509   1.0000000
N2   N   0.611109516197353   0.555577210071742   0.125875675260709   1.0000000
N2   N   0.444429373570731   0.055516762533869   0.125280951556060   1.0000000
N2   N   0.944455573618567   0.555569551771817   0.125398153859180   1.0000000
N2   N   0.777776153098353   0.055554743215844   0.125099573258483   1.0000000
N2   N   0.111114193350572   0.722223763341952   0.624837412607051   1.0000000
N2   N   0.444429373570731   0.722245944370198   0.624719048443941   1.0000000
N2   N   0.277748472292674   0.222177961436999   0.625041517163672   1.0000000
N2   N   0.777776533369804   0.722209381280053   0.624329289645998   1.0000000
N2   N   0.611090532566524   0.222199905602645   0.624491655595482   1.0000000
N2   N   0.944455916760609   0.222239003413571   0.624853924446532   1.0000000
N2   N   0.277768495731465   0.722233646319944   0.125177513566200   1.0000000
N2   N   0.111126194464264   0.222229763898796   0.125119482939324   1.0000000
N2   N   0.444435716784074   0.222184038500368   0.125345658850188   1.0000000
N2   N   0.611090532566524   0.722223960297207   0.125508344404516   1.0000000
N2   N   0.944455573618567   0.722219355180085   0.125398153859180   1.0000000
N2   N   0.777772866248797   0.222229755532948   0.125259624490156   1.0000000
N2   N   0.111112171207112   0.888867366131153   0.624813577676819   1.0000000
N2   N   0.444429096828793   0.888881215081062   0.624810783918914   1.0000000
N2   N   0.277748472292674   0.388903844189004   0.625041517163672   1.0000000
N2   N   0.611109516197353   0.388865639458939   0.624124324739292   1.0000000
N2   N   0.777772866248797   0.888876444049180   0.624740375509845   1.0000000
N2   N   0.944450577043324   0.388911632020073   0.624732209246941   1.0000000
N2   N   0.111107992805329   0.388916950590796   0.125146327561509   1.0000000
N2   N   0.277768495731465   0.888868182744852   0.125177513566200   1.0000000
N2   N   0.611095110025234   0.888888740615847   0.125201852972705   1.0000000
N2   N   0.444369443242073   0.388851388287701   0.126408830998137   1.0000000
N2   N   0.944450577043324   0.888872278356577   0.125267790753058   1.0000000
N2   N   0.777776533369804   0.388900485423083   0.125670710354001   1.0000000
N2   N   0.277771039006199   0.555586455827502   0.624796887925301   1.0000000
N2   N   0.111107992805329   0.055524375547863   0.624853672438491   1.0000000
N2   N   0.611109516197353   0.555577210071742   0.624124324739292   1.0000000
N2   N   0.444429373570731   0.055516762533869   0.624719048443941   1.0000000
N2   N   0.944455573618567   0.555569551771817   0.624601846140820   1.0000000
N2   N   0.111112171207112   0.555578138409289   0.125186422323180   1.0000000
N2   N   0.777776153098353   0.055554743215844   0.624900426741518   1.0000000
N2   N   0.277771039006199   0.055517916512033   0.125203112074699   1.0000000
N2   N   0.444435716784074   0.555585011617042   0.125345658850188   1.0000000
N2   N   0.777783843628051   0.555558588480693   0.125862297775676   1.0000000
N2   N   0.611095110025234   0.055539702742713   0.125201852972705   1.0000000
N2   N   0.444435716784074   0.555585011617042   0.624654341149814   1.0000000
N2   N   0.944455916760609   0.055550246680374   0.125146075553467   1.0000000
N2   N   0.277768495731465   0.722233646319944   0.624822486433802   1.0000000
N2   N   0.111126194464264   0.222229763898796   0.624880517060677   1.0000000
N2   N   0.444435716784074   0.222184038500368   0.624654341149814   1.0000000
N2   N   0.611090532566524   0.722223960297207   0.624491655595482   1.0000000
N2   N   0.944455573618567   0.722219355180085   0.624601846140820   1.0000000
N2   N   0.777772866248797   0.222229755532948   0.624740375509845   1.0000000
N2   N   0.111114193350572   0.722223763341952   0.125162587392950   1.0000000
N2   N   0.444429373570731   0.722245944370198   0.125280951556060   1.0000000
N2   N   0.277748472292674   0.222177961436999   0.124958482836329   1.0000000
N2   N   0.777776533369804   0.722209381280053   0.125670710354001   1.0000000
N2   N   0.611090532566524   0.222199905602645   0.125508344404516   1.0000000
N2   N   0.944455916760609   0.222239003413571   0.125146075553467   1.0000000
N2   N   0.111107992805329   0.388916950590796   0.624853672438491   1.0000000
N2   N   0.277768495731465   0.888868182744852   0.624822486433802   1.0000000
N2   N   0.611095110025234   0.888888740615847   0.624798147027295   1.0000000
N2   N   0.444369443242073   0.388851388287701   0.623591169001863   1.0000000
N2   N   0.944450577043324   0.888872278356577   0.624732209246941   1.0000000
N2   N   0.111112171207112   0.888867366131153   0.125186422323180   1.0000000
N2   N   0.777776533369804   0.388900485423083   0.624329289645998   1.0000000
N2   N   0.444429096828793   0.888881215081062   0.125189216081084   1.0000000
N2   N   0.277748472292674   0.388903844189004   0.124958482836329   1.0000000
N2   N   0.277771039006199   0.555586455827502   0.125203112074699   1.0000000
N2   N   0.611109516197353   0.388865639458939   0.125875675260709   1.0000000
N2   N   0.777772866248797   0.888876444049180   0.125259624490156   1.0000000
N2   N   0.944450577043324   0.388911632020073   0.125267790753058   1.0000000
N2   N   0.111112171207112   0.555578138409289   0.624813577676819   1.0000000
N2   N   0.277771039006199   0.055517916512033   0.624796887925301   1.0000000
N2   N   0.777783843628051   0.555558588480693   0.624137702224323   1.0000000
N2   N   0.611095110025234   0.055539702742713   0.624798147027295   1.0000000
N2   N   0.944455916760609   0.055550246680374   0.624853924446532   1.0000000
N2   N   0.057662123325585   0.112282750029743   0.375000000000000   1.0000000
N2   N   0.554774432704555   0.616272579221979   0.375000000000000   1.0000000
N2   N   0.387856987623434   0.104551745883402   0.375000000000000   1.0000000
N2   N   0.888975661351391   0.611154497342367   0.375000000000000   1.0000000
N2   N   0.724124911055442   0.111439326127467   0.375000000000000   1.0000000
N2   N   0.055531800815127   0.777769197329935   0.875000000000000   1.0000000
N2   N   0.388882260883870   0.777771730038469   0.875000000000000   1.0000000
N2   N   0.222200016202325   0.277766674767831   0.875000000000000   1.0000000
N2   N   0.722209145170094   0.777773228799788   0.875000000000000   1.0000000
N2   N   0.555542380617642   0.277773844422034   0.875000000000000   1.0000000
N2   N   0.888874341216295   0.277768011680731   0.875000000000000   1.0000000
N2   N   0.221540059199599   0.777436696266467   0.375000000000000   1.0000000
N2   N   0.057662123325585   0.278712706629177   0.375000000000000   1.0000000
N2   N   0.387371790179305   0.265437084387599   0.375000000000000   1.0000000
N2   N   0.556393521271610   0.780888327881035   0.375000000000000   1.0000000
N2   N   0.890086541776867   0.778878264915063   0.375000000000000   1.0000000
N2   N   0.723930549657650   0.277114198536634   0.375000000000000   1.0000000
N2   N   0.055534477134322   0.944438562798053   0.875000000000000   1.0000000
N2   N   0.388882260883870   0.944443864178737   0.875000000000000   1.0000000
N2   N   0.222201130855889   0.444428977734023   0.875000000000000   1.0000000
N2   N   0.555536441152101   0.444434887242715   0.875000000000000   1.0000000
N2   N   0.722211454521171   0.944440045906659   0.875000000000000   1.0000000
N2   N   0.888869606548894   0.444429984022707   0.875000000000000   1.0000000
N2   N   0.056153812057656   0.444972609900894   0.375000000000000   1.0000000
N2   N   0.221408327033996   0.942641794654523   0.375000000000000   1.0000000
N2   N   0.556632973723581   0.944983153528456   0.375000000000000   1.0000000
N2   N   0.387371790179305   0.455268039125042   0.375000000000000   1.0000000
N2   N   0.890761132445519   0.945956394225057   0.375000000000000   1.0000000
N2   N   0.724260806541137   0.445062002144519   0.375000000000000   1.0000000
N2   N   0.222205208802133   0.611096285191596   0.875000000000000   1.0000000
N2   N   0.055534600398758   0.111102093617323   0.875000000000000   1.0000000
N2   N   0.555542380617642   0.611101869528945   0.875000000000000   1.0000000
N2   N   0.388878215870160   0.111112203091525   0.875000000000000   1.0000000
N2   N   0.888864234986354   0.611098784159847   0.875000000000000   1.0000000
N2   N   0.055146201102817   0.611123623478633   0.375000000000000   1.0000000
N2   N   0.722211454521171   0.111104741947850   0.875000000000000   1.0000000
N2   N   0.222367898560575   0.109535286395304   0.375000000000000   1.0000000
N2   N   0.387856987623434   0.616638575073376   0.375000000000000   1.0000000
N2   N   0.724260806541137   0.612532137729954   0.375000000000000   1.0000000
N2   N   0.556393521271610   0.108838526723913   0.375000000000000   1.0000000
N2   N   0.388878215870160   0.611099346111979   0.875000000000000   1.0000000
N2   N   0.891050649332404   0.112191991332874   0.375000000000000   1.0000000
N2   N   0.222207368388992   0.777770350861165   0.875000000000000   1.0000000
N2   N   0.055534600398758   0.277765840114772   0.875000000000000   1.0000000
N2   N   0.388874469928063   0.277775275841774   0.875000000000000   1.0000000
N2   N   0.555547319478831   0.777772616280870   0.875000000000000   1.0000000
N2   N   0.888869606548894   0.777772955859523   0.875000000000000   1.0000000
N2   N   0.722209145170094   0.277769249703642   0.875000000000000   1.0000000
N2   N   0.055146201102817   0.777355910957519   0.375000000000000   1.0000000
N2   N   0.388714566931553   0.779441730843589   0.375000000000000   1.0000000
N2   N   0.225342952891998   0.279338143112666   0.375000000000000   1.0000000
N2   N   0.723930549657650   0.780149684454352   0.375000000000000   1.0000000
N2   N   0.554774432704555   0.271835186815912   0.375000000000000   1.0000000
N2   N   0.890761132445519   0.278138071553795   0.375000000000000   1.0000000
N2   N   0.055534477134322   0.444429247669598   0.875000000000000   1.0000000
N2   N   0.222205208802133   0.944442256943872   0.875000000000000   1.0000000
N2   N   0.555548444656086   0.944440888994706   0.875000000000000   1.0000000
N2   N   0.388874469928063   0.444432527419625   0.875000000000000   1.0000000
N2   N   0.888874341216295   0.944439662868898   0.875000000000000   1.0000000
N2   N   0.056153812057656   0.944514535490089   0.375000000000000   1.0000000
N2   N   0.722202654029519   0.444433337283316   0.875000000000000   1.0000000
N2   N   0.388714566931553   0.942606169421297   0.375000000000000   1.0000000
N2   N   0.222367898560575   0.446165945498607   0.375000000000000   1.0000000
N2   N   0.221408327033996   0.612099865712806   0.375000000000000   1.0000000
N2   N   0.724124911055442   0.946018918261314   0.375000000000000   1.0000000
N2   N   0.890086541776867   0.444541610195140   0.375000000000000   1.0000000
N2   N   0.055531800815127   0.611095936818527   0.875000000000000   1.0000000
N2   N   0.222201130855889   0.111105486455201   0.875000000000000   1.0000000
N2   N   0.722202654029519   0.611102650079539   0.875000000000000   1.0000000
N2   N   0.555547319478831   0.111108036531298   0.875000000000000   1.0000000
N2   N   0.888874973480569   0.111104153406957   0.875000000000000   1.0000000
B2   B   0.111397944265305   0.055217325705175   0.375000000000000   1.0000000
B2   B   0.621605085584993   0.578716567803798   0.375000000000000   1.0000000
B2   B   0.444942261921034   0.051574664043717   0.375000000000000   1.0000000
B2   B   0.945251879325458   0.555655684490153   0.375000000000000   1.0000000
B2   B   0.780328131373373   0.056830732353354   0.375000000000000   1.0000000
B2   B   0.111109108138227   0.722221220735779   0.875000000000000   1.0000000
B2   B   0.444424013457532   0.722254989031739   0.875000000000000   1.0000000
B2   B   0.277662958764013   0.222150571903129   0.875000000000000   1.0000000
B2   B   0.777822720430267   0.722302113309166   0.875000000000000   1.0000000
B2   B   0.611125690295805   0.222156172823136   0.875000000000000   1.0000000
B2   B   0.944422546078127   0.222195387916307   0.875000000000000   1.0000000
B2   B   0.277405493639015   0.722952118925355   0.375000000000000   1.0000000
B2   B   0.113090102842584   0.223211718087956   0.375000000000000   1.0000000
B2   B   0.442238374828372   0.211532303374124   0.375000000000000   1.0000000
B2   B   0.613925089160868   0.729703320371075   0.375000000000000   1.0000000
B2   B   0.945251879325458   0.722929528168640   0.375000000000000   1.0000000
B2   B   0.780423034626124   0.221773176334253   0.375000000000000   1.0000000
B2   B   0.111090697577653   0.888885362305242   0.875000000000000   1.0000000
B2   B   0.444436397673494   0.888884865503410   0.875000000000000   1.0000000
B2   B   0.277662958764013   0.388845720194212   0.875000000000000   1.0000000
B2   B   0.611128164956983   0.388850214838282   0.875000000000000   1.0000000
B2   B   0.777801254886840   0.888952058928153   0.875000000000000   1.0000000
B2   B   0.944451293546922   0.388856027276723   0.875000000000000   1.0000000
B2   B   0.111397944265305   0.389513951893458   0.375000000000000   1.0000000
B2   B   0.277405493639015   0.887786708046990   0.375000000000000   1.0000000
B2   B   0.613344071214399   0.891711220847970   0.375000000000000   1.0000000
B2   B   0.945933386611654   0.890492595178392   0.375000000000000   1.0000000
B2   B   0.781240802149927   0.387500870572936   0.375000000000000   1.0000000
B2   B   0.277715238714230   0.555546270294693   0.875000000000000   1.0000000
B2   B   0.111048627825519   0.055529593288133   0.875000000000000   1.0000000
B2   B   0.611128164956983   0.555611283452030   0.875000000000000   1.0000000
B2   B   0.444424013457532   0.055502357759131   0.875000000000000   1.0000000
B2   B   0.944474453849206   0.555550514473702   0.875000000000000   1.0000000
B2   B   0.110757654340437   0.555879235774780   0.375000000000000   1.0000000
B2   B   0.777790587052626   0.055561960192980   0.875000000000000   1.0000000
B2   B   0.276466160855027   0.052351886660131   0.375000000000000   1.0000000
B2   B   0.442238374828372   0.564039404787584   0.375000000000000   1.0000000
B2   B   0.780472057579443   0.556902695456389   0.375000000000000   1.0000000
B2   B   0.613344071214399   0.054966183699757   0.375000000000000   1.0000000
B2   B   0.444391618524168   0.555582484736821   0.875000000000000   1.0000000
B2   B   0.946678721357766   0.057121076972107   0.375000000000000   1.0000000
B2   B   0.277754284879397   0.722218722054602   0.875000000000000   1.0000000
B2   B   0.111023681842050   0.222178507587690   0.875000000000000   1.0000000
B2   B   0.444391618524168   0.222142467120685   0.875000000000000   1.0000000
B2   B   0.611125690295805   0.722302850805996   0.875000000000000   1.0000000
B2   B   0.944474453849206   0.722257272708840   0.875000000000000   1.0000000
B2   B   0.777801254886840   0.222182529292015   0.875000000000000   1.0000000
B2   B   0.110840264320185   0.722086798826757   0.375000000000000   1.0000000
B2   B   0.444942261921034   0.726700931210652   0.375000000000000   1.0000000
B2   B   0.276611678112283   0.219627257598183   0.375000000000000   1.0000000
B2   B   0.781240802149928   0.727073264910319   0.375000000000000   1.0000000
B2   B   0.613925089160868   0.217555102123123   0.375000000000000   1.0000000
B2   B   0.946678721357766   0.222890977718995   0.375000000000000   1.0000000
B2   B   0.111048627825519   0.388852367870715   0.875000000000000   1.0000000
B2   B   0.277754284879397   0.888868896158122   0.875000000000000   1.0000000
B2   B   0.611123877464272   0.888926805893223   0.875000000000000   1.0000000
B2   B   0.444362733722017   0.388848033527673   0.875000000000000   1.0000000
B2   B   0.944451293546922   0.888928599603524   0.875000000000000   1.0000000
B2   B   0.110757654340437   0.888211751898982   0.375000000000000   1.0000000
B2   B   0.777822720430267   0.388853940454428   0.875000000000000   1.0000000
B2   B   0.445335578091078   0.889334455712204   0.375000000000000   1.0000000
B2   B   0.276611678112283   0.390317753847427   0.375000000000000   1.0000000
B2   B   0.276466160855027   0.557447607528232   0.375000000000000   1.0000000
B2   B   0.621605085584993   0.376221851114523   0.375000000000000   1.0000000
B2   B   0.780423034626124   0.891983191625201   0.375000000000000   1.0000000
B2   B   0.945933386611654   0.388774124766593   0.375000000000000   1.0000000
B2   B   0.111090697577653   0.555538668605740   0.875000000000000   1.0000000
B2   B   0.277715238714230   0.055502301752873   0.875000000000000   1.0000000
B2   B   0.777830413476820   0.555581873405078   0.875000000000000   1.0000000
B2   B   0.611123877464272   0.055530404904380   0.875000000000000   1.0000000
B2   B   0.944422546078127   0.055560491495155   0.875000000000000   1.0000000
B2   B   0.055511574240208   0.111060903915728   0.124746961946840   1.0000000
B2   B   0.555490057954778   0.611354479137235   0.124397479879059   1.0000000
B2   B   0.388709690998857   0.110760179491760   0.124630743445799   1.0000000
B2   B   0.889187533396014   0.611260433364678   0.124863577940466   1.0000000
B2   B   0.722232409199764   0.111048807987150   0.124728828741694   1.0000000
B2   B   0.055691561179684   0.777828262847611   0.625206314364274   1.0000000
B2   B   0.388790161582732   0.777830587142844   0.625224616129837   1.0000000
B2   B   0.222013707038570   0.277673520185954   0.625571841673789   1.0000000
B2   B   0.722321396775411   0.777984143525327   0.625239453040443   1.0000000
B2   B   0.555490057954778   0.277468912150876   0.625602520120943   1.0000000
B2   B   0.888963268416594   0.277776327151799   0.625214959735931   1.0000000
B2   B   0.222215380913031   0.777774357123183   0.124772060841498   1.0000000
B2   B   0.055511574240208   0.277784003657814   0.124746961946840   1.0000000
B2   B   0.388510041565614   0.277292461350585   0.124426542908066   1.0000000
B2   B   0.555480658365417   0.777937187384765   0.124731655788900   1.0000000
B2   B   0.889105609092696   0.777933191925360   0.124851827404736   1.0000000
B2   B   0.722321396775411   0.277670586583417   0.124760546959554   1.0000000
B2   B   0.055590723291266   0.944417365922065   0.625210045135070   1.0000000
B2   B   0.388790161582732   0.944292907773223   0.625224616129837   1.0000000
B2   B   0.222054046133851   0.444514306767289   0.625406559707897   1.0000000
B2   B   0.555690757992069   0.444512045662699   0.625470344356391   1.0000000
B2   B   0.722232409199764   0.944516934545952   0.625271171258304   1.0000000
B2   B   0.889105609092696   0.444505750500668   0.625148172595265   1.0000000
B2   B   0.055590723291266   0.444506690702530   0.124789954864930   1.0000000
B2   B   0.222167213176657   0.944302492263495   0.124775184807996   1.0000000
B2   B   0.555490436083184   0.944411884708255   0.124749300313344   1.0000000
B2   B   0.388510041565614   0.444550913548365   0.124426542908066   1.0000000
B2   B   0.888963268416594   0.944520274598131   0.124785040264069   1.0000000
B2   B   0.722509321935135   0.444506429988077   0.124708579169260   1.0000000
B2   B   0.222167213176657   0.611198054246495   0.625224815192002   1.0000000
B2   B   0.055511574240208   0.111060903915728   0.625253038053158   1.0000000
B2   B   0.555490057954778   0.611354479137235   0.625602520120943   1.0000000
B2   B   0.388709690998857   0.110760179491760   0.625369256554202   1.0000000
B2   B   0.889187533396014   0.611260433364678   0.625136422059535   1.0000000
B2   B   0.055691561179684   0.611196631665404   0.124793685635725   1.0000000
B2   B   0.722232409199764   0.111048807987150   0.625271171258304   1.0000000
B2   B   0.222054046133851   0.110873072699899   0.124593440292102   1.0000000
B2   B   0.388709690998857   0.611282844840440   0.124630743445799   1.0000000
B2   B   0.722509321935135   0.611336225280390   0.124708579169260   1.0000000
B2   B   0.555480658365417   0.110876804313989   0.124731655788900   1.0000000
B2   B   0.388709690998857   0.611282844840440   0.625369256554202   1.0000000
B2   B   0.888910178231235   0.111121755782288   0.124747030424919   1.0000000
B2   B   0.222215380913031   0.777774357123183   0.625227939158502   1.0000000
B2   B   0.055511574240208   0.277784003657814   0.625253038053158   1.0000000
B2   B   0.388510041565614   0.277292461350585   0.625573457091934   1.0000000
B2   B   0.555480658365417   0.777937187384765   0.625268344211099   1.0000000
B2   B   0.889105609092696   0.777933191925360   0.625148172595265   1.0000000
B2   B   0.722321396775411   0.277670586583417   0.625239453040443   1.0000000
B2   B   0.055691561179684   0.777828262847611   0.124793685635725   1.0000000
B2   B   0.388790161582732   0.777830587142844   0.124775383870162   1.0000000
B2   B   0.222013707038570   0.277673520185954   0.124428158326211   1.0000000
B2   B   0.722321396775411   0.777984143525327   0.124760546959554   1.0000000
B2   B   0.555490057954778   0.277468912150876   0.124397479879059   1.0000000
B2   B   0.888963268416594   0.277776327151799   0.124785040264069   1.0000000
B2   B   0.055590723291266   0.444506690702530   0.625210045135070   1.0000000
B2   B   0.222167213176657   0.944302492263495   0.625224815192002   1.0000000
B2   B   0.555490436083184   0.944411884708255   0.625250699686654   1.0000000
B2   B   0.388510041565614   0.444550913548365   0.625573457091934   1.0000000
B2   B   0.888963268416594   0.944520274598131   0.625214959735931   1.0000000
B2   B   0.055590723291266   0.944417365922065   0.124789954864930   1.0000000
B2   B   0.722509321935135   0.444506429988077   0.625291420830741   1.0000000
B2   B   0.388790161582732   0.944292907773223   0.124775383870162   1.0000000
B2   B   0.222054046133851   0.444514306767289   0.124593440292102   1.0000000
B2   B   0.222167213176657   0.611198054246495   0.124775184807996   1.0000000
B2   B   0.555690757992069   0.444512045662699   0.124529655643609   1.0000000
B2   B   0.722232409199764   0.944516934545952   0.124728828741694   1.0000000
B2   B   0.889105609092696   0.444505750500668   0.124851827404736   1.0000000
B2   B   0.055691561179684   0.611196631665404   0.625206314364274   1.0000000
B2   B   0.222054046133851   0.110873072699899   0.625406559707897   1.0000000
B2   B   0.722509321935135   0.611336225280390   0.625291420830741   1.0000000
B2   B   0.555480658365417   0.110876804313989   0.625268344211099   1.0000000
B2   B   0.888910178231235   0.111121755782288   0.625252969575081   1.0000000


