data_1
_audit_creation_method   'vasp2cif'
_cell_length_a    17.52789999999977
_cell_length_b    17.52789999999977
_cell_length_c    15.0
_cell_angle_alpha    90.0
_cell_angle_beta    90.0
_cell_angle_gamma    119.99999999999916

_symmetry_space_group_name_H-M    'P 1'
loop_
_atom_site_label
_atom_site_type_symbol
_atom_site_fract_x
_atom_site_fract_y
_atom_site_fract_z
_atom_site_occupancy
B2   B   0.905061779494386   0.952632610538290   0.111017473676173   1.0000000
B2   B   0.904757506710631   0.095244514485366   0.111023516101472   1.0000000
B2   B   0.904737021864083   0.238082857777544   0.111045669117453   1.0000000
B2   B   0.904757506710631   0.380941685916262   0.111023516101472   1.0000000
B2   B   0.905061779494386   0.523859574204098   0.111017473676173   1.0000000
B2   B   0.905062776771250   0.666797049144254   0.111045666158113   1.0000000
B2   B   0.905062776771250   0.809696132874998   0.111045666158113   1.0000000
B2   B   0.047627784781757   0.952374236414247   0.111022183086632   1.0000000
B2   B   0.047369410657714   0.094940241701610   0.111017473676173   1.0000000
B2   B   0.047288961612344   0.237845194361808   0.111020364345656   1.0000000
B2   B   0.047288961612344   0.380874172497536   0.111020364345656   1.0000000
B2   B   0.047369410657714   0.523859574204098   0.111017473676173   1.0000000
B2   B   0.047627784781757   0.666685665171507   0.111022183086632   1.0000000
B2   B   0.047663089612213   0.809547603208108   0.111011370931319   1.0000000
B2   B   0.190454417987895   0.952338931583791   0.111011370931319   1.0000000
B2   B   0.190305888321006   0.094939244424746   0.111045666158113   1.0000000
B2   B   0.189553731439713   0.237122118054582   0.111036338090785   1.0000000
B2   B   0.189538579546104   0.380484492396552   0.111014902223663   1.0000000
B2   B   0.189553731439713   0.523862018633133   0.111036338090785   1.0000000
B2   B   0.190305888321006   0.666797049144254   0.111045666158113   1.0000000
B2   B   0.190454417987895   0.809547603208108   0.111011370931319   1.0000000
B2   B   0.333316356025491   0.952374236414247   0.111022183086632   1.0000000
B2   B   0.333204972052744   0.094939244424746   0.111045666158113   1.0000000
B2   B   0.333009244243852   0.237446872537706   0.111048226470761   1.0000000
B2   B   0.331467482047249   0.378539654786095   0.111013186324029   1.0000000
B2   B   0.331467482047249   0.524358232508154   0.111013186324029   1.0000000
B2   B   0.333009244243852   0.666992776953146   0.111048226470761   1.0000000
B2   B   0.333204972052744   0.809696132874998   0.111045666158113   1.0000000
B2   B   0.476142446992900   0.952632610538290   0.111017473676173   1.0000000
B2   B   0.476142446992900   0.094940241701610   0.111017473676173   1.0000000
B2   B   0.476140002563865   0.237122118054582   0.111036338090785   1.0000000
B2   B   0.475643788688845   0.378539654786095   0.111013186324029   1.0000000
B2   B   0.475643788688845   0.668534539149750   0.111013186324029   1.0000000
B2   B   0.476140002563865   0.810448289756290   0.111036338090785   1.0000000
B2   B   0.619127848698468   0.952713059583660   0.111020364345656   1.0000000
B2   B   0.619060335279741   0.095244514485366   0.111023516101472   1.0000000
B2   B   0.619127848698468   0.237845194361808   0.111020364345656   1.0000000
B2   B   0.619517528799451   0.380484492396552   0.111014902223663   1.0000000
B2   B   0.621462366409908   0.524358232508154   0.111013186324029   1.0000000
B2   B   0.621462366409908   0.668534539149750   0.111013186324029   1.0000000
B2   B   0.619517528799451   0.810463441649899   0.111014902223663   1.0000000
B2   B   0.762156826834196   0.952713059583660   0.111020364345656   1.0000000
B2   B   0.761919163418460   0.095264999331913   0.111045669117453   1.0000000
B2   B   0.761919163418460   0.238082857777544   0.111045669117453   1.0000000
B2   B   0.762156826834196   0.380874172497536   0.111020364345656   1.0000000
B2   B   0.762879903141422   0.523862018633133   0.111036338090785   1.0000000
B2   B   0.762555148658297   0.666992776953146   0.111048226470761   1.0000000
B2   B   0.762879903141422   0.810448289756290   0.111036338090785   1.0000000
N2   N   0.952518767451842   0.904880140273783   0.111014314937482   1.0000000
N2   N   0.952365123663312   0.047636278254693   0.110996937587505   1.0000000
N2   N   0.952223869960517   0.190376417894851   0.111017209456062   1.0000000
N2   N   0.952223869960517   0.333274434183664   0.111017209456062   1.0000000
N2   N   0.952365123663312   0.476155827526617   0.110996937587505   1.0000000
N2   N   0.952518767451842   0.619067320853055   0.111014314937482   1.0000000
N2   N   0.952547444449425   0.761988069062214   0.111019447074520   1.0000000
N2   N   0.095237701311478   0.904763700606520   0.110996977792547   1.0000000
N2   N   0.095121261644216   0.047482634466163   0.111014314937482   1.0000000
N2   N   0.094624958198901   0.189966620078159   0.111010504970980   1.0000000
N2   N   0.094585566569973   0.333007130121987   0.111000597944262   1.0000000
N2   N   0.094624958198901   0.476087031794743   0.111010504970980   1.0000000
N2   N   0.095121261644216   0.619067320853055   0.111014314937482   1.0000000
N2   N   0.095237701311478   0.761904405935963   0.110996977792547   1.0000000
N2   N   0.238096995982043   0.904763700606520   0.110996977792547   1.0000000
N2   N   0.238013332855792   0.047453957468581   0.111019447074520   1.0000000
N2   N   0.237756578082901   0.190033892037461   0.111027550872189   1.0000000
N2   N   0.236407609860310   0.332013458801308   0.111010149059560   1.0000000
N2   N   0.236407609860310   0.475822844732996   0.111010149059560   1.0000000
N2   N   0.237756578082901   0.619151379720436   0.111027550872189   1.0000000
N2   N   0.238013332855792   0.761988069062214   0.111019447074520   1.0000000
N2   N   0.380934081064943   0.904880140273783   0.111014314937482   1.0000000
N2   N   0.380934081064943   0.047482634466163   0.111014314937482   1.0000000
N2   N   0.380850022197562   0.190033892037461   0.111027550872189   1.0000000
N2   N   0.380542785915666   0.332512863588328   0.111021187787100   1.0000000
N2   N   0.371239282967289   0.471333988320641   0.110941596758324   1.0000000
N2   N   0.380542785915666   0.619458616002333   0.111021187787100   1.0000000
N2   N   0.380850022197562   0.762244823835104   0.111027550872189   1.0000000
N2   N   0.523914370122254   0.905376443719098   0.111010504970980   1.0000000
N2   N   0.523845574390379   0.047636278254693   0.110996937587505   1.0000000
N2   N   0.523914370122254   0.189966620078159   0.111010504970980   1.0000000
N2   N   0.524178557184001   0.332013458801308   0.111010149059560   1.0000000
N2   N   0.528667413596355   0.471333988320641   0.110941596758324   1.0000000
N2   N   0.528667413596355   0.628762118950709   0.110941596758324   1.0000000
N2   N   0.524178557184001   0.763593792057696   0.111010149059560   1.0000000
N2   N   0.666994271795010   0.905415835348026   0.111000597944262   1.0000000
N2   N   0.666726967733332   0.047777531957488   0.111017209456062   1.0000000
N2   N   0.666726967733332   0.190376417894851   0.111017209456062   1.0000000
N2   N   0.666994271795010   0.333007130121987   0.111000597944262   1.0000000
N2   N   0.667987943115689   0.475822844732996   0.111010149059560   1.0000000
N2   N   0.667488538328668   0.619458616002333   0.111021187787100   1.0000000
N2   N   0.667987943115689   0.763593792057696   0.111010149059560   1.0000000
N2   N   0.810034781839840   0.905376443719098   0.111010504970980   1.0000000
N2   N   0.809624984023147   0.047777531957488   0.111017209456062   1.0000000
N2   N   0.809525273905997   0.190476128012001   0.111027201024364   1.0000000
N2   N   0.809624984023147   0.333274434183664   0.111017209456062   1.0000000
N2   N   0.810034781839840   0.476087031794743   0.111010504970980   1.0000000
N2   N   0.809967509880538   0.619151379720436   0.111027550872189   1.0000000
N2   N   0.809967509880538   0.762244823835104   0.111027550872189   1.0000000
O2   O   0.476191212381998   0.523810808815000   0.111228413002768   1.0000000


