data_1
_audit_creation_method   'vasp2cif'
_cell_length_a    17.52789999999977
_cell_length_b    17.52789999999977
_cell_length_c    15.0
_cell_angle_alpha    90.0
_cell_angle_beta    90.0
_cell_angle_gamma    119.99999999999916

_symmetry_space_group_name_H-M    'P 1'
loop_
_atom_site_label
_atom_site_type_symbol
_atom_site_fract_x
_atom_site_fract_y
_atom_site_fract_z
_atom_site_occupancy
As2   As   0.400801783770674   0.480429833294249   0.110246603821823   1.0000000
B2   B   0.908288338001020   0.953662690077905   0.110899317096362   1.0000000
B2   B   0.908730512992911   0.096886109789617   0.110943076901150   1.0000000
B2   B   0.908504958508611   0.239444641616960   0.110853632313563   1.0000000
B2   B   0.907273624940473   0.381512980444301   0.110715979824944   1.0000000
B2   B   0.904036175540878   0.523077318569251   0.110646564661977   1.0000000
B2   B   0.903058209179776   0.664826860757220   0.110780238225850   1.0000000
B2   B   0.905058221778700   0.808342749622965   0.110884283232309   1.0000000
B2   B   0.048697574172885   0.950815092359643   0.110834853543717   1.0000000
B2   B   0.050026495495260   0.094431402363314   0.110852924426761   1.0000000
B2   B   0.051495536510784   0.238866683481742   0.110822322102582   1.0000000
B2   B   0.051151229771791   0.381753904307360   0.110845693705105   1.0000000
B2   B   0.048622359274907   0.523929818365488   0.110802554607508   1.0000000
B2   B   0.047421002534240   0.665695771417206   0.110649844473230   1.0000000
B2   B   0.047491201553638   0.807787018421703   0.110737206171875   1.0000000
B2   B   0.191094513288986   0.950082136851454   0.110809360262384   1.0000000
B2   B   0.191755605153701   0.092286216433565   0.110712716936616   1.0000000
B2   B   0.191674856364444   0.234366076746187   0.110488997388213   1.0000000
B2   B   0.195438598365141   0.381579787119013   0.110668926059906   1.0000000
B2   B   0.192234156732981   0.525028441201203   0.111069514543467   1.0000000
B2   B   0.191515388106693   0.667042794411056   0.110914517770895   1.0000000
B2   B   0.191041702864979   0.808501751539518   0.110667456259927   1.0000000
B2   B   0.334775248401042   0.951076197242685   0.110835429043389   1.0000000
B2   B   0.334677711385347   0.090895000152543   0.110909290683527   1.0000000
B2   B   0.335620710500644   0.230217018494596   0.110535455369605   1.0000000
B2   B   0.332680048002490   0.362245754160111   0.110055575398642   1.0000000
B2   B   0.335198747954682   0.535213751685681   0.110656305084239   1.0000000
B2   B   0.335963615961008   0.672095785432253   0.111069242935686   1.0000000
B2   B   0.335160907368547   0.811149131687032   0.110885309482472   1.0000000
B2   B   0.478981722948130   0.953274279463010   0.110820887594416   1.0000000
B2   B   0.478733458994789   0.094053536252670   0.110867867974696   1.0000000
B2   B   0.478566529458170   0.234827279667201   0.110970985506152   1.0000000
B2   B   0.483591807732724   0.379899652220686   0.110808131697910   1.0000000
B2   B   0.481388359533209   0.671834263450608   0.110265634453734   1.0000000
B2   B   0.479797650469495   0.812603323562126   0.110952855705571   1.0000000
B2   B   0.622956420510915   0.955352706690884   0.110733039939266   1.0000000
B2   B   0.622441878292970   0.096472704287046   0.110647728877778   1.0000000
B2   B   0.621990356466858   0.238178786500593   0.110798526727433   1.0000000
B2   B   0.621421524187070   0.381295907478385   0.110666578870521   1.0000000
B2   B   0.586107144313819   0.518272442034220   0.110551016268059   1.0000000
B2   B   0.629174324465336   0.677245384886946   0.110692199883359   1.0000000
B2   B   0.624132766131721   0.814815378330400   0.110822964555385   1.0000000
B2   B   0.766356313557752   0.955409602334424   0.110822153788098   1.0000000
B2   B   0.765855411390673   0.097307293580757   0.110740977949360   1.0000000
B2   B   0.765213578711681   0.239205114961164   0.110713907892954   1.0000000
B2   B   0.763651109992450   0.381105138960940   0.110633511653494   1.0000000
B2   B   0.756760721193372   0.521394005714351   0.110519406735573   1.0000000
B2   B   0.759257222920854   0.664149524566578   0.111128024629642   1.0000000
B2   B   0.767236885542809   0.813504054505687   0.111005693470737   1.0000000
N2   N   0.953885284493489   0.904167917622621   0.110848097900505   1.0000000
N2   N   0.955540520890607   0.048503651528034   0.110943540435567   1.0000000
N2   N   0.956316003844992   0.191943247716784   0.110915917166227   1.0000000
N2   N   0.955870169414248   0.334378516911662   0.110793346878498   1.0000000
N2   N   0.953554145105146   0.476432641355721   0.110680111840765   1.0000000
N2   N   0.952301740186663   0.618324228169224   0.110637636695525   1.0000000
N2   N   0.952466280920281   0.760588012072564   0.110790391860150   1.0000000
N2   N   0.095917273761228   0.902950156694596   0.110790876224549   1.0000000
N2   N   0.096636995109576   0.045836002186355   0.110797985076748   1.0000000
N2   N   0.097149114873841   0.189109687537784   0.110707660068633   1.0000000
N2   N   0.099486836539792   0.334300689308637   0.110765732036143   1.0000000
N2   N   0.097161267681887   0.476957036795121   0.110914474412283   1.0000000
N2   N   0.096144151602346   0.619055870293847   0.110732669774088   1.0000000
N2   N   0.095731286215601   0.760860189643997   0.110606122803746   1.0000000
N2   N   0.239262553707662   0.903317904058294   0.110747918760601   1.0000000
N2   N   0.239198770621613   0.044565520233647   0.110822551348466   1.0000000
N2   N   0.239571722410491   0.186511290158194   0.110472174677953   1.0000000
N2   N   0.239011700770172   0.328761779823083   0.110315843061699   1.0000000
N2   N   0.240382482114985   0.478045599012838   0.110940092449770   1.0000000
N2   N   0.240038386234890   0.620807857338554   0.111168445117305   1.0000000
N2   N   0.239546456654487   0.762203422415426   0.110749017248660   1.0000000
N2   N   0.383425749891573   0.905425527287083   0.110794937556509   1.0000000
N2   N   0.383126739259913   0.045101422528529   0.110913732073027   1.0000000
N2   N   0.383052320172845   0.184160824889657   0.110911777567958   1.0000000
N2   N   0.385243392938118   0.322587045418823   0.110241134189765   1.0000000
N2   N   0.385248170302667   0.628502801042513   0.110748126016259   1.0000000
N2   N   0.384132310509673   0.766181344427136   0.111041469704204   1.0000000
N2   N   0.527607383578074   0.907280743064372   0.110835114338955   1.0000000
N2   N   0.527087747057507   0.047770709070343   0.110709431718166   1.0000000
N2   N   0.526696827051733   0.188249749568542   0.110901176814538   1.0000000
N2   N   0.525927005189645   0.328595936433806   0.110956990021512   1.0000000
N2   N   0.516363136875646   0.543734437220102   0.109097382333736   1.0000000
N2   N   0.536141915894571   0.632305660227917   0.109327859158823   1.0000000
N2   N   0.528844358456545   0.766902469207133   0.110777348959350   1.0000000
N2   N   0.671385613871796   0.909291179125701   0.110744257500087   1.0000000
N2   N   0.670705586072133   0.049930466749869   0.110621004576716   1.0000000
N2   N   0.670135961683962   0.191064095593157   0.110662630357243   1.0000000
N2   N   0.669127145743558   0.332589137140933   0.110720226998864   1.0000000
N2   N   0.662732889980981   0.474315000498380   0.110203564572504   1.0000000
N2   N   0.664783999529466   0.619943205362493   0.111275634497135   1.0000000
N2   N   0.673923540121848   0.770575411176962   0.110993711271763   1.0000000
N2   N   0.814213828198437   0.908237117770021   0.110877527548267   1.0000000
N2   N   0.813808676844443   0.050221318506449   0.110843741421311   1.0000000
N2   N   0.813409509864046   0.192080140633557   0.110757269674314   1.0000000
N2   N   0.812417182816578   0.333914324726589   0.110658337298408   1.0000000
N2   N   0.809192526620537   0.475810223604592   0.110584654612386   1.0000000
N2   N   0.808239511727743   0.617779127260418   0.110847299899089   1.0000000
N2   N   0.810400587211076   0.761788262203306   0.111005897187401   1.0000000


