data_1
_audit_creation_method   'vasp2cif'
_cell_length_a    17.52789999999977
_cell_length_b    17.52789999999977
_cell_length_c    15.0
_cell_angle_alpha    90.0
_cell_angle_beta    90.0
_cell_angle_gamma    119.99999999999916

_symmetry_space_group_name_H-M    'P 1'
loop_
_atom_site_label
_atom_site_type_symbol
_atom_site_fract_x
_atom_site_fract_y
_atom_site_fract_z
_atom_site_occupancy
B2   B   0.905788177312869   0.953292171403811   0.111015348714519   1.0000000
B2   B   0.905168608646789   0.095751748962098   0.111046535093338   1.0000000
B2   B   0.904936118771850   0.238534556222029   0.111095160187442   1.0000000
B2   B   0.904672804079494   0.381204203623097   0.110989712456519   1.0000000
B2   B   0.905460816133403   0.524107837065767   0.110990776841053   1.0000000
B2   B   0.907139261626504   0.667568856699125   0.111107780590632   1.0000000
B2   B   0.907114587748207   0.811260038814291   0.111061698456899   1.0000000
B2   B   0.048459654927883   0.952821881106511   0.111017324660578   1.0000000
B2   B   0.047832413810836   0.095345667325044   0.111003511418841   1.0000000
B2   B   0.047631760478477   0.238257721344273   0.110992254911079   1.0000000
B2   B   0.047548534159595   0.381096945479694   0.111009575845870   1.0000000
B2   B   0.047800402739303   0.524035868542399   0.111002868363881   1.0000000
B2   B   0.048462071604436   0.666960076195670   0.111043664542855   1.0000000
B2   B   0.048784424898001   0.810125119292811   0.111038608826049   1.0000000
B2   B   0.190616320214111   0.951951370251904   0.111034995995368   1.0000000
B2   B   0.190046392052840   0.094269222812391   0.111059636777258   1.0000000
B2   B   0.189689093870811   0.237274106650210   0.111001558766869   1.0000000
B2   B   0.189955889369353   0.380600546148560   0.111013349357325   1.0000000
B2   B   0.190112177375816   0.524026390041629   0.111090554765492   1.0000000
B2   B   0.190303590209382   0.666966239444759   0.111083840172229   1.0000000
B2   B   0.190931183765413   0.809728096496900   0.111015181039040   1.0000000
B2   B   0.333521903426946   0.952143133483292   0.111057714490857   1.0000000
B2   B   0.332441047523684   0.093327395941443   0.111125077566651   1.0000000
B2   B   0.331056491340881   0.234184860502186   0.111070600611728   1.0000000
B2   B   0.331665327089687   0.379556678537043   0.111073993250278   1.0000000
B2   B   0.332122866494012   0.524115703333771   0.111080866491931   1.0000000
B2   B   0.331904524952906   0.667234261061639   0.111097933307759   1.0000000
B2   B   0.333425533021435   0.810018426270707   0.111082325696462   1.0000000
B2   B   0.476550798558162   0.952940728055387   0.111005254166760   1.0000000
B2   B   0.476193744268356   0.095452898658598   0.111010657629906   1.0000000
B2   B   0.473916501167009   0.236549574081825   0.111074602475870   1.0000000
B2   B   0.472915141710136   0.666919417667559   0.111032057904349   1.0000000
B2   B   0.476298592856037   0.810286616362388   0.111024171154600   1.0000000
B2   B   0.619373730595951   0.952905011701612   0.110993105851759   1.0000000
B2   B   0.619286033665495   0.095835999583879   0.110994860804462   1.0000000
B2   B   0.618788129845322   0.238582262333180   0.111018179926852   1.0000000
B2   B   0.617559238274421   0.382295219612065   0.110992017333182   1.0000000
B2   B   0.622548760487989   0.667288644945068   0.110912297964936   1.0000000
B2   B   0.619598590116387   0.809719665597050   0.110910898407859   1.0000000
B2   B   0.762619100789433   0.953093383451905   0.110977485655377   1.0000000
B2   B   0.762397713824329   0.095881758511818   0.111066753559531   1.0000000
B2   B   0.761991023294642   0.238635502839052   0.111073406689263   1.0000000
B2   B   0.761265081042264   0.381328508273966   0.111008994531988   1.0000000
B2   B   0.763342285100715   0.525269913105789   0.110953105973559   1.0000000
B2   B   0.767593930541013   0.668905198415237   0.110943528151282   1.0000000
B2   B   0.763267515504508   0.810767500553219   0.110929146693424   1.0000000
C2   C   0.470408865531156   0.376315142991922   0.111043385259028   1.0000000
C2   C   0.470829030337380   0.516001541351523   0.111182495102964   1.0000000
C2   C   0.512146979919751   0.467765509895198   0.111148533600904   1.0000000
C2   C   0.520283712089752   0.611596487096403   0.111071571267084   1.0000000
N2   N   0.953757626439457   0.906049059558302   0.111021122903223   1.0000000
N2   N   0.953028027846346   0.048343275572838   0.111006192502730   1.0000000
N2   N   0.952749751302118   0.190978593596346   0.111041357896227   1.0000000
N2   N   0.952547890600662   0.333682537035402   0.111014994794913   1.0000000
N2   N   0.952729192237169   0.476322265275959   0.110938296696072   1.0000000
N2   N   0.953676396585527   0.619323746723127   0.111037322329934   1.0000000
N2   N   0.953894535500387   0.762890128279180   0.111074935958128   1.0000000
N2   N   0.095965752842527   0.905187855445868   0.110997134589050   1.0000000
N2   N   0.095661121709533   0.047946889885826   0.110998658768628   1.0000000
N2   N   0.095469892677346   0.190687312426209   0.110962270131692   1.0000000
N2   N   0.095488748197627   0.333488218598023   0.110968687197316   1.0000000
N2   N   0.095464304849258   0.476281709527516   0.111012062834582   1.0000000
N2   N   0.095623917131158   0.619166986244489   0.111023433168448   1.0000000
N2   N   0.096018277476474   0.762255826579417   0.110998710045472   1.0000000
N2   N   0.238558678544940   0.904911827532325   0.111005149910286   1.0000000
N2   N   0.238008849666207   0.047248336614186   0.111080065441728   1.0000000
N2   N   0.237601858451087   0.189858529037193   0.111021617379537   1.0000000
N2   N   0.238016934961186   0.332721991072093   0.110997826275628   1.0000000
N2   N   0.238068254941584   0.475917254707070   0.111056873778611   1.0000000
N2   N   0.237554312243898   0.619068761980147   0.111103644495530   1.0000000
N2   N   0.238461352771898   0.762132384127903   0.111050263949665   1.0000000
N2   N   0.381375470294772   0.905062107993037   0.111036289158470   1.0000000
N2   N   0.381064094286193   0.047477040642052   0.111063939200095   1.0000000
N2   N   0.379664371796881   0.189032016908702   0.111091947739966   1.0000000
N2   N   0.380447582091488   0.330957698499748   0.111055002031477   1.0000000
N2   N   0.379289645906120   0.474437532162514   0.111113200802404   1.0000000
N2   N   0.378986864635506   0.618886046153807   0.111048028234204   1.0000000
N2   N   0.381013529408851   0.762172307580026   0.111067185193626   1.0000000
N2   N   0.524076488381918   0.905251318278137   0.110990312986213   1.0000000
N2   N   0.524001197988002   0.048291986690538   0.110958983554091   1.0000000
N2   N   0.523090138411042   0.191323540079879   0.111003386136837   1.0000000
N2   N   0.518120902561787   0.333711236957509   0.111066706341280   1.0000000
N2   N   0.523255878001446   0.761489575484772   0.110943586480908   1.0000000
N2   N   0.666860339849028   0.904853365121324   0.110935911703202   1.0000000
N2   N   0.666930359644654   0.048126236576971   0.110998750337658   1.0000000
N2   N   0.666448552311855   0.191128492228849   0.111004995703000   1.0000000
N2   N   0.664902539446969   0.333421038722329   0.111008829020219   1.0000000
N2   N   0.670263590067472   0.472842492702268   0.110797234227144   1.0000000
N2   N   0.675316174016586   0.629969300327536   0.110744349861258   1.0000000
N2   N   0.667814059952036   0.763024511006170   0.110861573954912   1.0000000
N2   N   0.810538971005422   0.905858617665364   0.110955093469322   1.0000000
N2   N   0.809985638721275   0.048247726046271   0.111022136568288   1.0000000
N2   N   0.809706576470512   0.191034746751309   0.111097094954637   1.0000000
N2   N   0.809169775367916   0.333693934021332   0.111011495797778   1.0000000
N2   N   0.810049339548974   0.476299661820251   0.110968935979961   1.0000000
N2   N   0.812600658573707   0.620142098508191   0.111031059275867   1.0000000
N2   N   0.812087448228088   0.764238162239030   0.110983590710096   1.0000000


