data_1
_audit_creation_method   'vasp2cif'
_cell_length_a    14.93631414619966
_cell_length_b    14.936314146199727
_cell_length_c    13.341276283792837
_cell_angle_alpha    90.0
_cell_angle_beta    90.0
_cell_angle_gamma    119.99999999999984

_symmetry_space_group_name_H-M    'P 1'
loop_
_atom_site_label
_atom_site_type_symbol
_atom_site_fract_x
_atom_site_fract_y
_atom_site_fract_z
_atom_site_occupancy
As2   As   0.444444444444443   0.388888888888886   0.375000000000000   1.0000000
N2   N   0.111153897287502   0.055613300750812   0.125328967129532   1.0000000
N2   N   0.611008338903355   0.555459548660622   0.125555261065296   1.0000000
N2   N   0.444459403463314   0.055613300750812   0.125328967129532   1.0000000
N2   N   0.944417095701180   0.555538190036693   0.124744115382239   1.0000000
N2   N   0.777777777777779   0.055555555555557   0.124868533441938   1.0000000
N2   N   0.111111111111114   0.722222222222221   0.624984650890751   1.0000000
N2   N   0.444459403463314   0.722179436045833   0.624671032870509   1.0000000
N2   N   0.277873784672730   0.222324994429944   0.624444738934714   1.0000000
N2   N   0.777720032582586   0.722179436045833   0.624671032870509   1.0000000
N2   N   0.611099416709103   0.222233916624261   0.624392184913652   1.0000000
N2   N   0.944441494565069   0.222221252808684   0.625357939755818   1.0000000
N2   N   0.277795143296685   0.722212238997922   0.124744115382239   1.0000000
N2   N   0.111134499915200   0.222233916624261   0.125607815086327   1.0000000
N2   N   0.444451209757175   0.222324994429944   0.125555261065293   1.0000000
N2   N   0.611099416709103   0.722198833418134   0.125607815086327   1.0000000
N2   N   0.944417095701180   0.722212238997922   0.124744115382239   1.0000000
N2   N   0.777779758243633   0.222221252808684   0.124642060244204   1.0000000
N2   N   0.111121094335428   0.888916237632148   0.625255884617775   1.0000000
N2   N   0.444460269614328   0.888896801473795   0.625566720126873   1.0000000
N2   N   0.277873784672730   0.388882123576153   0.624444738934714   1.0000000
N2   N   0.611008338903355   0.388882123576153   0.624444738934714   1.0000000
N2   N   0.777779758243633   0.888891838768259   0.625357939755818   1.0000000
N2   N   0.944436531859534   0.388873063719001   0.625566720126873   1.0000000
N2   N   0.111153897287502   0.388873929870015   0.125328967129532   1.0000000
N2   N   0.277795143296685   0.888916237632148   0.124744115382239   1.0000000
N2   N   0.611112080524658   0.888891838768259   0.124642060244204   1.0000000
N2   N   0.444444444444443   0.388888888888886   0.114581948586500   1.0000000
N2   N   0.944436531859534   0.888896801473795   0.124433279873215   1.0000000
N2   N   0.777720032582586   0.388873929870015   0.125328967129532   1.0000000
N2   N   0.277802557214066   0.555530776119327   0.624342419684706   1.0000000
N2   N   0.111153897287502   0.055613300750812   0.624671032870509   1.0000000
N2   N   0.611008338903355   0.555459548660622   0.624444738934714   1.0000000
N2   N   0.444459403463314   0.055613300750812   0.624671032870509   1.0000000
N2   N   0.944417095701180   0.555538190036693   0.625255884617775   1.0000000
N2   N   0.111121094335428   0.555538190036693   0.124744115382239   1.0000000
N2   N   0.777777777777779   0.055555555555557   0.625131466558074   1.0000000
N2   N   0.277802557214066   0.055605114428108   0.125657580315263   1.0000000
N2   N   0.444451209757175   0.555459548660622   0.125555261065296   1.0000000
N2   N   0.777728218905203   0.555530776119327   0.125657580315263   1.0000000
N2   N   0.611112080524658   0.055553575089713   0.124642060244204   1.0000000
N2   N   0.444451209757175   0.555459548660622   0.624444738934714   1.0000000
N2   N   0.944441494565069   0.055553575089713   0.124642060244204   1.0000000
N2   N   0.277795143296685   0.722212238997922   0.625255884617775   1.0000000
N2   N   0.111134499915200   0.222233916624261   0.624392184913652   1.0000000
N2   N   0.444451209757175   0.222324994429944   0.624444738934714   1.0000000
N2   N   0.611099416709103   0.722198833418134   0.624392184913652   1.0000000
N2   N   0.944417095701180   0.722212238997922   0.625255884617775   1.0000000
N2   N   0.777779758243633   0.222221252808684   0.625357939755818   1.0000000
N2   N   0.111111111111114   0.722222222222221   0.125015349109248   1.0000000
N2   N   0.444459403463314   0.722179436045833   0.125328967129532   1.0000000
N2   N   0.277873784672730   0.222324994429944   0.125555261065296   1.0000000
N2   N   0.777720032582586   0.722179436045833   0.125328967129532   1.0000000
N2   N   0.611099416709103   0.222233916624261   0.125607815086327   1.0000000
N2   N   0.944441494565069   0.222221252808684   0.124642060244204   1.0000000
N2   N   0.111153897287502   0.388873929870015   0.624671032870509   1.0000000
N2   N   0.277795143296685   0.888916237632148   0.625255884617775   1.0000000
N2   N   0.611112080524658   0.888891838768259   0.625357939755818   1.0000000
N2   N   0.444444444444443   0.388888888888886   0.635418051413496   1.0000000
N2   N   0.944436531859534   0.888896801473795   0.625566720126873   1.0000000
N2   N   0.111121094335428   0.888916237632148   0.124744115382239   1.0000000
N2   N   0.777720032582586   0.388873929870015   0.624671032870509   1.0000000
N2   N   0.444460269614328   0.888896801473795   0.124433279873215   1.0000000
N2   N   0.277873784672730   0.388882123576153   0.125555261065296   1.0000000
N2   N   0.277802557214066   0.555530776119327   0.125657580315263   1.0000000
N2   N   0.611008338903355   0.388882123576153   0.125555261065297   1.0000000
N2   N   0.777779758243633   0.888891838768259   0.124642060244204   1.0000000
N2   N   0.944436531859534   0.388873063719001   0.124433279873215   1.0000000
N2   N   0.111121094335428   0.555538190036693   0.625255884617775   1.0000000
N2   N   0.277802557214066   0.055605114428108   0.624342419684706   1.0000000
N2   N   0.777728218905203   0.555530776119327   0.624342419684706   1.0000000
N2   N   0.611112080524658   0.055553575089713   0.625357939755818   1.0000000
N2   N   0.944441494565069   0.055553575089713   0.625357939755818   1.0000000
N2   N   0.054372786297852   0.110344579056766   0.375000000000000   1.0000000
N2   N   0.556004847661234   0.612009695322608   0.375000000000000   1.0000000
N2   N   0.387295080062826   0.103272848145453   0.375000000000000   1.0000000
N2   N   0.891745493628590   0.612539413480955   0.375000000000000   1.0000000
N2   N   0.722438539635153   0.110894793698174   0.375000000000000   1.0000000
N2   N   0.055560155705964   0.777773177627354   0.875000000000000   1.0000000
N2   N   0.388892339239740   0.777773177874490   0.875000000000000   1.0000000
N2   N   0.222229965236533   0.277781649284925   0.875000000000000   1.0000000
N2   N   0.722222014796834   0.777765772286879   0.875000000000000   1.0000000
N2   N   0.555551684048447   0.277781649284925   0.875000000000000   1.0000000
N2   N   0.888890658772684   0.277781317545369   0.875000000000000   1.0000000
N2   N   0.221648140094552   0.777490736713972   0.375000000000000   1.0000000
N2   N   0.054372786297852   0.277361540574438   0.375000000000000   1.0000000
N2   N   0.375507833500750   0.251015667001502   0.375000000000000   1.0000000
N2   N   0.555971792758866   0.778960547035520   0.375000000000000   1.0000000
N2   N   0.891087640078675   0.779499710666634   0.375000000000000   1.0000000
N2   N   0.722988754276578   0.277361540574438   0.375000000000000   1.0000000
N2   N   0.055560155458902   0.944452494698661   0.875000000000000   1.0000000
N2   N   0.388892339239740   0.944452494698661   0.875000000000000   1.0000000
N2   N   0.222209431847091   0.444443244003944   0.875000000000000   1.0000000
N2   N   0.555604299909619   0.444468816621474   0.875000000000000   1.0000000
N2   N   0.722224729390821   0.944449458781670   0.875000000000000   1.0000000
N2   N   0.888880838634668   0.444440994093589   0.875000000000000   1.0000000
N2   N   0.053833622666671   0.444921262745355   0.375000000000000   1.0000000
N2   N   0.220793919852335   0.941587839704738   0.375000000000000   1.0000000
N2   N   0.555893307912063   0.944613320622682   0.375000000000000   1.0000000
N2   N   0.375507833500750   0.457825499832579   0.375000000000000   1.0000000
N2   N   0.888720012710647   0.944613320622682   0.375000000000000   1.0000000
N2   N   0.730060485187899   0.446038253270503   0.375000000000000   1.0000000
N2   N   0.222222124425284   0.611111208908025   0.875000000000000   1.0000000
N2   N   0.055567561046470   0.111111318536472   0.875000000000000   1.0000000
N2   N   0.555551684048447   0.611103368096820   0.875000000000000   1.0000000
N2   N   0.388890089329384   0.111099521176529   0.875000000000000   1.0000000
N2   N   0.888889084482815   0.611111208908025   0.875000000000000   1.0000000
N2   N   0.055842596619388   0.611685193238742   0.375000000000000   1.0000000
N2   N   0.722224729390821   0.111108603942524   0.875000000000000   1.0000000
N2   N   0.215977768082615   0.103272848145454   0.375000000000000   1.0000000
N2   N   0.387295080062826   0.617355565250684   0.375000000000000   1.0000000
N2   N   0.730060485187899   0.617355565250684   0.375000000000000   1.0000000
N2   N   0.555971792758866   0.110344579056766   0.375000000000000   1.0000000
N2   N   0.388890089329384   0.611123901486223   0.875000000000000   1.0000000
N2   N   0.888456254063010   0.110894793698174   0.375000000000000   1.0000000
N2   N   0.222213021921425   0.777773177627354   0.875000000000000   1.0000000
N2   N   0.055567561046470   0.277789575843350   0.875000000000000   1.0000000
N2   N   0.388864516711855   0.277729033423707   0.875000000000000   1.0000000
N2   N   0.555543757490064   0.777765772286879   0.875000000000000   1.0000000
N2   N   0.888880838634672   0.777773177874490   0.875000000000000   1.0000000
N2   N   0.722222014796834   0.277789575843350   0.875000000000000   1.0000000
N2   N   0.055842596619388   0.777490736713972   0.375000000000000   1.0000000
N2   N   0.388412070587973   0.779499710666634   0.375000000000000   1.0000000
N2   N   0.221323638010757   0.277328485672031   0.375000000000000   1.0000000
N2   N   0.722988754276578   0.778960547035520   0.375000000000000   1.0000000
N2   N   0.556004847661234   0.277328485672031   0.375000000000000   1.0000000
N2   N   0.888720012710647   0.277440025421311   0.375000000000000   1.0000000
N2   N   0.055560155458902   0.444440994093589   0.875000000000000   1.0000000
N2   N   0.222222124425284   0.944444248850513   0.875000000000000   1.0000000
N2   N   0.555552015787957   0.944442674560645   0.875000000000000   1.0000000
N2   N   0.388864516711855   0.444468816621474   0.875000000000000   1.0000000
N2   N   0.888890658772684   0.944442674560645   0.875000000000000   1.0000000
N2   N   0.053833622666671   0.942245693254653   0.375000000000000   1.0000000
N2   N   0.722233812156829   0.444443244003944   0.875000000000000   1.0000000
N2   N   0.388412070587973   0.942245693254653   0.375000000000000   1.0000000
N2   N   0.215977768082615   0.446038253270503   0.375000000000000   1.0000000
N2   N   0.220793919852335   0.612539413480955   0.375000000000000   1.0000000
N2   N   0.582317666331830   0.457825499832579   0.375000000000000   1.0000000
N2   N   0.722438539635153   0.944877079270318   0.375000000000000   1.0000000
N2   N   0.891087640078675   0.444921262745355   0.375000000000000   1.0000000
N2   N   0.055560155705964   0.611120311411956   0.875000000000000   1.0000000
N2   N   0.222209431847091   0.111099521176529   0.875000000000000   1.0000000
N2   N   0.722233812156829   0.611123901486223   0.875000000000000   1.0000000
N2   N   0.555543757490064   0.111111318536472   0.875000000000000   1.0000000
N2   N   0.888883874551659   0.111108603942524   0.875000000000000   1.0000000
B2   B   0.107341379300478   0.051932544371876   0.375000000000000   1.0000000
B2   B   0.620467007845514   0.562928743256771   0.375000000000000   1.0000000
B2   B   0.444591165071398   0.051932544371876   0.375000000000000   1.0000000
B2   B   0.945641370237415   0.555921128204319   0.375000000000000   1.0000000
B2   B   0.777777777777779   0.055555555555557   0.375000000000000   1.0000000
B2   B   0.111111111111114   0.722222222222221   0.875000000000000   1.0000000
B2   B   0.444434468808250   0.722171910865628   0.875000000000000   1.0000000
B2   B   0.277851795081518   0.222311765110720   0.875000000000000   1.0000000
B2   B   0.777737442057311   0.722171910865628   0.875000000000000   1.0000000
B2   B   0.611043637506484   0.222289695826853   0.875000000000000   1.0000000
B2   B   0.944449184320007   0.222262357725049   0.875000000000000   1.0000000
B2   B   0.277412205129069   0.723053575366521   0.375000000000000   1.0000000
B2   B   0.110513056683245   0.221923195008286   0.375000000000000   1.0000000
B2   B   0.442461735411214   0.212866325487792   0.375000000000000   1.0000000
B2   B   0.611410138325044   0.722820276650104   0.375000000000000   1.0000000
B2   B   0.945641370237415   0.723053575366521   0.375000000000000   1.0000000
B2   B   0.777854490852020   0.221766532989898   0.375000000000000   1.0000000
B2   B   0.111171259981344   0.888933053896833   0.875000000000000   1.0000000
B2   B   0.444487218479460   0.888910275906382   0.875000000000000   1.0000000
B2   B   0.277851795081518   0.388873363304165   0.875000000000000   1.0000000
B2   B   0.611021568222644   0.388873363304165   0.875000000000000   1.0000000
B2   B   0.777813173405110   0.888884149013321   0.875000000000000   1.0000000
B2   B   0.944423057426947   0.388846114853868   0.875000000000000   1.0000000
B2   B   0.107341379300478   0.388742168261938   0.375000000000000   1.0000000
B2   B   0.277412205129069   0.887691963095914   0.375000000000000   1.0000000
B2   B   0.611566800343473   0.889421291195399   0.375000000000000   1.0000000
B2   B   0.944263695797629   0.889069637535700   0.375000000000000   1.0000000
B2   B   0.781400788961444   0.388742168261938   0.375000000000000   1.0000000
B2   B   0.277779619507230   0.555553713826147   0.875000000000000   1.0000000
B2   B   0.111161422467751   0.055595891275997   0.875000000000000   1.0000000
B2   B   0.611021568222644   0.555481538251838   0.875000000000000   1.0000000
B2   B   0.444434468808250   0.055595891275997   0.875000000000000   1.0000000
B2   B   0.944400279436496   0.555571539417823   0.875000000000000   1.0000000
B2   B   0.110279757966790   0.555921128204319   0.375000000000000   1.0000000
B2   B   0.777777777777779   0.055555555555557   0.875000000000000   1.0000000
B2   B   0.275782454902198   0.051564909804368   0.375000000000000   1.0000000
B2   B   0.442461735411214   0.562928743256771   0.375000000000000   1.0000000
B2   B   0.781768423528939   0.557550878431149   0.375000000000000   1.0000000
B2   B   0.611566800343473   0.055478842481357   0.375000000000000   1.0000000
B2   B   0.444459970029163   0.555481538251838   0.875000000000000   1.0000000
B2   B   0.943912042137929   0.055478842481357   0.375000000000000   1.0000000
B2   B   0.277761793915517   0.722162073352007   0.875000000000000   1.0000000
B2   B   0.111246058320394   0.222289695826853   0.875000000000000   1.0000000
B2   B   0.444459970029163   0.222311765110720   0.875000000000000   1.0000000
B2   B   0.611043637506484   0.722087275012949   0.875000000000000   1.0000000
B2   B   0.944400279436496   0.722162073352007   0.875000000000000   1.0000000
B2   B   0.777813173405110   0.222262357725049   0.875000000000000   1.0000000
B2   B   0.111111111111114   0.722222222222221   0.375000000000000   1.0000000
B2   B   0.444591165071390   0.725991954032882   0.375000000000000   1.0000000
B2   B   0.270404590076573   0.212866325487792   0.375000000000000   1.0000000
B2   B   0.781400788961444   0.725991954032882   0.375000000000000   1.0000000
B2   B   0.611410138325044   0.221923195008286   0.375000000000000   1.0000000
B2   B   0.943912042137929   0.221766532989903   0.375000000000000   1.0000000
B2   B   0.111161422467751   0.388898864525079   0.875000000000000   1.0000000
B2   B   0.277761793915517   0.888933053896833   0.875000000000000   1.0000000
B2   B   0.611070975608289   0.888884149013321   0.875000000000000   1.0000000
B2   B   0.444444444444443   0.388888888888886   0.875000000000000   1.0000000
B2   B   0.944423057426947   0.888910275906382   0.875000000000000   1.0000000
B2   B   0.110279757966790   0.887691963095914   0.375000000000000   1.0000000
B2   B   0.777737442057311   0.388898864525079   0.875000000000000   1.0000000
B2   B   0.444805941738063   0.889069637535700   0.375000000000000   1.0000000
B2   B   0.270404590076573   0.390871597922115   0.375000000000000   1.0000000
B2   B   0.275782454902198   0.557550878431149   0.375000000000000   1.0000000
B2   B   0.620467007845514   0.390871597922115   0.375000000000000   1.0000000
B2   B   0.777854490852020   0.889421291195399   0.375000000000000   1.0000000
B2   B   0.944263695797629   0.388527391595266   0.375000000000000   1.0000000
B2   B   0.111171259981344   0.555571539417823   0.875000000000000   1.0000000
B2   B   0.277779619507230   0.055559239014407   0.875000000000000   1.0000000
B2   B   0.777774094318876   0.555553713826147   0.875000000000000   1.0000000
B2   B   0.611070975608289   0.055520159928243   0.875000000000000   1.0000000
B2   B   0.944449184320007   0.055520159928243   0.875000000000000   1.0000000
B2   B   0.055669992268863   0.111196279517913   0.125254310458985   1.0000000
B2   B   0.555423903524763   0.610847807049540   0.125974223077994   1.0000000
B2   B   0.388997777255098   0.111423476102353   0.125988221123360   1.0000000
B2   B   0.888724818046487   0.611029075689898   0.125082547173999   1.0000000
B2   B   0.722223909061821   0.111109424271502   0.124797679921921   1.0000000
B2   B   0.055549547066888   0.777783786266424   0.625157454068026   1.0000000
B2   B   0.388956847271431   0.777706573986026   0.625154679744822   1.0000000
B2   B   0.222485526283835   0.277909429808565   0.624025776922040   1.0000000
B2   B   0.722137053815363   0.777663341064460   0.624745689541064   1.0000000
B2   B   0.555423903524763   0.277909429808565   0.624025776922040   1.0000000
B2   B   0.888881435806504   0.277762871613046   0.625418566812721   1.0000000
B2   B   0.222234239199556   0.777783786266424   0.124842545931956   1.0000000
B2   B   0.055669992268863   0.277807046084255   0.125254310458985   1.0000000
B2   B   0.389224621404371   0.278449242808760   0.123282019047856   1.0000000
B2   B   0.555526287249076   0.777663341064460   0.125254310458985   1.0000000
B2   B   0.888749726714565   0.777706573986026   0.124845320255255   1.0000000
B2   B   0.722137053815363   0.277807046084254   0.125254310458985   1.0000000
B2   B   0.055626759347342   0.944583606618764   0.625154679744822   1.0000000
B2   B   0.388956847271431   0.944583606618764   0.625154679744822   1.0000000
B2   B   0.222425698847261   0.444335556078231   0.624011778876664   1.0000000
B2   B   0.554884090524586   0.444108711928957   0.626717980952096   1.0000000
B2   B   0.722223909061821   0.944447818123704   0.625202320078065   1.0000000
B2   B   0.888749726714565   0.444376486061898   0.625154679744822   1.0000000
B2   B   0.055626759347342   0.444376486061898   0.124845320255255   1.0000000
B2   B   0.222304257643437   0.944608515286842   0.125082547173999   1.0000000
B2   B   0.555570461720298   0.944451897526825   0.124581433187312   1.0000000
B2   B   0.389224621404371   0.444108711928957   0.123282019047856   1.0000000
B2   B   0.888881435806504   0.944451897526825   0.124581433187312   1.0000000
B2   B   0.721909857230960   0.444335556078231   0.125988221123360   1.0000000
B2   B   0.222304257643437   0.611029075689898   0.624917452826029   1.0000000
B2   B   0.055669992268863   0.111196279517913   0.624745689541064   1.0000000
B2   B   0.555423903524763   0.610847807049540   0.624025776922040   1.0000000
B2   B   0.388997777255098   0.111423476102353   0.624011778876664   1.0000000
B2   B   0.888724818046487   0.611029075689898   0.624917452826029   1.0000000
B2   B   0.055549547066888   0.611099094133758   0.124842545931956   1.0000000
B2   B   0.722223909061821   0.111109424271502   0.625202320078065   1.0000000
B2   B   0.222425698847261   0.111423476102353   0.125988221123360   1.0000000
B2   B   0.388997777255098   0.610907634486017   0.125988221123360   1.0000000
B2   B   0.721909857230960   0.610907634486017   0.125988221123360   1.0000000
B2   B   0.555526287249076   0.111196279517913   0.125254310458985   1.0000000
B2   B   0.388997777255098   0.610907634486017   0.624011778876664   1.0000000
B2   B   0.888885515209624   0.111109424271502   0.124797679921921   1.0000000
B2   B   0.222234239199556   0.777783786266424   0.625157454068026   1.0000000
B2   B   0.055669992268863   0.277807046084255   0.624745689541064   1.0000000
B2   B   0.389224621404371   0.278449242808760   0.626717980952096   1.0000000
B2   B   0.555526287249076   0.777663341064460   0.624745689541064   1.0000000
B2   B   0.888749726714565   0.777706573986026   0.625154679744822   1.0000000
B2   B   0.722137053815363   0.277807046084254   0.624745689541064   1.0000000
B2   B   0.055549547066888   0.777783786266424   0.124842545931956   1.0000000
B2   B   0.388956847271431   0.777706573986026   0.124845320255255   1.0000000
B2   B   0.222485526283835   0.277909429808565   0.125974223077994   1.0000000
B2   B   0.722137053815363   0.777663341064460   0.125254310458985   1.0000000
B2   B   0.555423903524763   0.277909429808565   0.125974223077994   1.0000000
B2   B   0.888881435806504   0.277762871613046   0.124581433187312   1.0000000
B2   B   0.055626759347342   0.444376486061898   0.625154679744822   1.0000000
B2   B   0.222304257643437   0.944608515286842   0.624917452826029   1.0000000
B2   B   0.555570461720298   0.944451897526825   0.625418566812721   1.0000000
B2   B   0.389224621404371   0.444108711928957   0.626717980952096   1.0000000
B2   B   0.888881435806504   0.944451897526825   0.625418566812721   1.0000000
B2   B   0.055626759347342   0.944583606618764   0.124845320255255   1.0000000
B2   B   0.721909857230960   0.444335556078231   0.624011778876664   1.0000000
B2   B   0.388956847271431   0.944583606618764   0.124845320255255   1.0000000
B2   B   0.222425698847261   0.444335556078231   0.125988221123360   1.0000000
B2   B   0.222304257643437   0.611029075689898   0.125082547173999   1.0000000
B2   B   0.554884090524586   0.444108711928957   0.123282019047856   1.0000000
B2   B   0.722223909061821   0.944447818123704   0.124797679921921   1.0000000
B2   B   0.888749726714565   0.444376486061898   0.124845320255255   1.0000000
B2   B   0.055549547066888   0.611099094133758   0.625157454068026   1.0000000
B2   B   0.222425698847261   0.111423476102353   0.624011778876664   1.0000000
B2   B   0.721909857230960   0.610907634486017   0.624011778876664   1.0000000
B2   B   0.555526287249076   0.111196279517913   0.624745689541064   1.0000000
B2   B   0.888885515209624   0.111109424271502   0.625202320078065   1.0000000


