data_1
_audit_creation_method   'vasp2cif'
_cell_length_a    17.52789999999977
_cell_length_b    17.52789999999977
_cell_length_c    15.0
_cell_angle_alpha    90.0
_cell_angle_beta    90.0
_cell_angle_gamma    119.99999999999916

_symmetry_space_group_name_H-M    'P 1'
loop_
_atom_site_label
_atom_site_type_symbol
_atom_site_fract_x
_atom_site_fract_y
_atom_site_fract_z
_atom_site_occupancy
B2   B   0.908260565329166   0.952869645385025   0.114162188410878   1.0000000
B2   B   0.908833197457269   0.095341288787532   0.112034726333360   1.0000000
B2   B   0.908995170373013   0.237640346609581   0.108592761831403   1.0000000
B2   B   0.908938898039997   0.380267170174641   0.108320838224657   1.0000000
B2   B   0.907606558062831   0.522931402566898   0.112487892301044   1.0000000
B2   B   0.906160027702283   0.665341449932437   0.116008194028909   1.0000000
B2   B   0.904349603907427   0.807215793259670   0.113290249290593   1.0000000
B2   B   0.050476055519206   0.953750851009829   0.112559462315594   1.0000000
B2   B   0.052547001639349   0.097181381588769   0.111496725942546   1.0000000
B2   B   0.052279469423602   0.238921659429775   0.108946047841395   1.0000000
B2   B   0.051148826417674   0.381325973281598   0.106065300430276   1.0000000
B2   B   0.049401597985980   0.524492278819114   0.106889600586482   1.0000000
B2   B   0.048805213871444   0.667579261884371   0.111181657368167   1.0000000
B2   B   0.048911253558446   0.810506787694753   0.113225692051988   1.0000000
B2   B   0.193381064446643   0.955276664097980   0.110631859321068   1.0000000
B2   B   0.196643798135937   0.100018822536024   0.110824179122895   1.0000000
B2   B   0.197121757677881   0.241765276870994   0.111347682356304   1.0000000
B2   B   0.194373370183435   0.382499859753847   0.109945574143948   1.0000000
B2   B   0.190462902233765   0.525552279715437   0.105177780575479   1.0000000
B2   B   0.190258418550207   0.668934621980803   0.106142439693398   1.0000000
B2   B   0.191723557687773   0.811905529419221   0.109601567975172   1.0000000
B2   B   0.335706072794862   0.955287323021574   0.108990953425587   1.0000000
B2   B   0.337999140033671   0.099465276712626   0.109134990491559   1.0000000
B2   B   0.344633257773220   0.247917625909347   0.110664229125693   1.0000000
B2   B   0.341174515059745   0.384467734395467   0.119545955460184   1.0000000
B2   B   0.330183098706302   0.528456836417166   0.115848680094813   1.0000000
B2   B   0.330517159797375   0.670513869218497   0.108529899709031   1.0000000
B2   B   0.334093589072858   0.812566122423430   0.107686838749854   1.0000000
B2   B   0.478220518878308   0.953601979424578   0.109791352066619   1.0000000
B2   B   0.479719786521083   0.096258197406819   0.109197065112785   1.0000000
B2   B   0.482375056749712   0.240179085688446   0.108860197250693   1.0000000
B2   B   0.502130568081864   0.398414317810302   0.108277186940412   1.0000000
B2   B   0.468835955475406   0.668527501517309   0.116512924443177   1.0000000
B2   B   0.476753592341271   0.811230168455019   0.109244947422145   1.0000000
B2   B   0.621300042264312   0.953071314444908   0.113605135337918   1.0000000
B2   B   0.622337616319047   0.094438102896216   0.110598659185413   1.0000000
B2   B   0.623536635633580   0.235531693712404   0.109471995373911   1.0000000
B2   B   0.625788619192984   0.375305234137580   0.110265709437684   1.0000000
B2   B   0.607560855398833   0.498361366609262   0.107413524550255   1.0000000
B2   B   0.620670398391092   0.811866041740974   0.109277737543006   1.0000000
B2   B   0.764891753687259   0.952297078425671   0.114774180308898   1.0000000
B2   B   0.765541762163394   0.094604160120383   0.112107849421896   1.0000000
B2   B   0.766226253417544   0.236650280184008   0.109390426979199   1.0000000
B2   B   0.767067576290078   0.378625768275113   0.111113852508525   1.0000000
B2   B   0.764275937798861   0.519480783479713   0.114171258428554   1.0000000
B2   B   0.759631517250978   0.657695169840552   0.111920813166359   1.0000000
B2   B   0.764715134666237   0.809727693927007   0.109170523742318   1.0000000
Ge2   Ge   0.612339604635341   0.655114594888415   0.063041343365520   1.0000000
N2   N   0.954207913183904   0.904001300386127   0.113415332785996   1.0000000
N2   N   0.956829489588664   0.048414161382806   0.112902831415194   1.0000000
N2   N   0.957008888536710   0.190624285573034   0.109434903603518   1.0000000
N2   N   0.956648753138637   0.332898508898425   0.106917628598399   1.0000000
N2   N   0.955368041089806   0.475652624182737   0.109086422418773   1.0000000
N2   N   0.954415009162727   0.618590022284935   0.114090450342131   1.0000000
N2   N   0.953385587348804   0.761257907797712   0.115012084308461   1.0000000
N2   N   0.097752252950830   0.906258863711037   0.112220968374580   1.0000000
N2   N   0.100158095409784   0.050119278800466   0.111662616459907   1.0000000
N2   N   0.101153625297477   0.192891982725014   0.110106947403064   1.0000000
N2   N   0.099696770823902   0.334409335011187   0.107377555463684   1.0000000
N2   N   0.096790333420644   0.476759959672552   0.104751297677091   1.0000000
N2   N   0.096112279041118   0.619984171199064   0.107519531749987   1.0000000
N2   N   0.096629927046192   0.763152890259985   0.111635940587455   1.0000000
N2   N   0.240322837293516   0.907164970302168   0.109686474678384   1.0000000
N2   N   0.242356525291041   0.050946290110439   0.110002897719758   1.0000000
N2   N   0.246697925690799   0.196829107314606   0.111088459914786   1.0000000
N2   N   0.245256994054240   0.337888689249955   0.113944671041858   1.0000000
N2   N   0.238129917630875   0.478027253302275   0.107986452032629   1.0000000
N2   N   0.237018436080233   0.620924516746893   0.104867332424039   1.0000000
N2   N   0.239025506364199   0.764103521351035   0.107490058343431   1.0000000
N2   N   0.382856193013176   0.907076002212119   0.108650936553639   1.0000000
N2   N   0.384263742621273   0.050124612939137   0.108916182500393   1.0000000
N2   N   0.386822813365663   0.194798942658741   0.108907421886698   1.0000000
N2   N   0.396161137880266   0.346472890084399   0.112846739732458   1.0000000
N2   N   0.380226178056299   0.483255547616217   0.128454415412338   1.0000000
N2   N   0.376302254514305   0.622187648825924   0.115264293600429   1.0000000
N2   N   0.381338162055579   0.764645914539418   0.107692304359636   1.0000000
N2   N   0.525629855884913   0.905572814697079   0.110808309192708   1.0000000
N2   N   0.526894560259975   0.047940687768302   0.109971031214287   1.0000000
N2   N   0.528404270675940   0.190336953506334   0.109015211002519   1.0000000
N2   N   0.531953838575157   0.333270255011251   0.108604713942714   1.0000000
N2   N   0.465003821343846   0.527751557761610   0.139773110239731   1.0000000
N2   N   0.506327745108187   0.611648977375053   0.127565401124176   1.0000000
N2   N   0.523605260588108   0.762143002706426   0.109662247874626   1.0000000
N2   N   0.668813176874543   0.905847950961842   0.115460075246736   1.0000000
N2   N   0.670029104622053   0.047269582880671   0.112628399471702   1.0000000
N2   N   0.671142019316018   0.188467129842391   0.109469910301263   1.0000000
N2   N   0.673081838731128   0.329011700345843   0.110456281703075   1.0000000
N2   N   0.671172716087214   0.468284157848972   0.111127458772314   1.0000000
N2   N   0.663931090066498   0.599513026945005   0.107767762981918   1.0000000
N2   N   0.670461705305918   0.768483918263271   0.101007894374840   1.0000000
N2   N   0.812853228821627   0.904961495773639   0.114833966301806   1.0000000
N2   N   0.813279066231004   0.047293508199845   0.113530406955500   1.0000000
N2   N   0.813939539111710   0.189428713020782   0.109738056245347   1.0000000
N2   N   0.814635318550526   0.331535396722328   0.109375255664849   1.0000000
N2   N   0.813615108302966   0.473718369304747   0.113483062272292   1.0000000
N2   N   0.811642956243125   0.615587897080220   0.116977369246848   1.0000000
N2   N   0.807394844661847   0.756900038073410   0.110418404902534   1.0000000


