data_1
_audit_creation_method   'vasp2cif'
_cell_length_a    17.52789999999977
_cell_length_b    17.52789999999977
_cell_length_c    15.0
_cell_angle_alpha    90.0
_cell_angle_beta    90.0
_cell_angle_gamma    119.99999999999916

_symmetry_space_group_name_H-M    'P 1'
loop_
_atom_site_label
_atom_site_type_symbol
_atom_site_fract_x
_atom_site_fract_y
_atom_site_fract_z
_atom_site_occupancy
B2   B   0.903016156268930   0.951032741011552   0.110991726903135   1.0000000
B2   B   0.905389848063067   0.095506307451089   0.111027037993526   1.0000000
B2   B   0.905942772490316   0.238685733090659   0.111080918297412   1.0000000
B2   B   0.905389848063067   0.381312234302975   0.111027037993526   1.0000000
B2   B   0.903016156268930   0.523413820505380   0.110991726903135   1.0000000
B2   B   0.901463914446588   0.665273705561359   0.111011970126982   1.0000000
B2   B   0.901463914446588   0.807620614133230   0.111011970126982   1.0000000
B2   B   0.046436208097831   0.951851167068189   0.110996577629438   1.0000000
B2   B   0.048149448555948   0.095737367152598   0.110997831020241   1.0000000
B2   B   0.049537003885281   0.239235955059946   0.111020680835259   1.0000000
B2   B   0.049537003885281   0.381731454072335   0.111020680835259   1.0000000
B2   B   0.048149448555948   0.523842486651346   0.110997831020241   1.0000000
B2   B   0.046436208097831   0.666017157833639   0.110996577629438   1.0000000
B2   B   0.045695435841364   0.808563776322684   0.110976584626460   1.0000000
B2   B   0.189554619303434   0.951978747607175   0.110989319623261   1.0000000
B2   B   0.191051578136406   0.096041971274331   0.111030905257739   1.0000000
B2   B   0.193398271957448   0.240465629959901   0.111005466808433   1.0000000
B2   B   0.194129452461851   0.382779928854426   0.111000041634946   1.0000000
B2   B   0.193398271957448   0.524363047245550   0.111005466808433   1.0000000
B2   B   0.191051578136406   0.666440012110070   0.111030905257739   1.0000000
B2   B   0.189554619303434   0.809007988500263   0.110989319623261   1.0000000
B2   B   0.332783079144284   0.952107597973644   0.111006958646264   1.0000000
B2   B   0.333109203856382   0.095110153706379   0.111053522562067   1.0000000
B2   B   0.335838941594509   0.240153707721677   0.111079048677451   1.0000000
B2   B   0.339838196520307   0.385832179958224   0.111056898715237   1.0000000
B2   B   0.339838196520307   0.525436421809083   0.111056898715237   1.0000000
B2   B   0.335838941594509   0.667115639119832   0.111079048677451   1.0000000
B2   B   0.333109203856382   0.809429455397001   0.111053522562067   1.0000000
B2   B   0.476073464565186   0.952548415899180   0.110994670782770   1.0000000
B2   B   0.476073464565186   0.094955453913005   0.110994670782770   1.0000000
B2   B   0.476167358098172   0.237346886531633   0.111065455796351   1.0000000
B2   B   0.480988914166257   0.383114555154930   0.111117454789195   1.0000000
B2   B   0.491272046856694   0.531351226052348   0.111171304992520   1.0000000
B2   B   0.480988914166257   0.669304764258328   0.111117454789195   1.0000000
B2   B   0.476167358098172   0.810250876813546   0.111065455796351   1.0000000
B2   B   0.619158987737140   0.952611026978555   0.111004392951349   1.0000000
B2   B   0.619301938563938   0.095365316127464   0.110986749401421   1.0000000
B2   B   0.619158987737140   0.237978366005584   0.111004392951349   1.0000000
B2   B   0.618561827709047   0.380353451768916   0.111023292686082   1.0000000
B2   B   0.604390790549251   0.517703145155921   0.111103814308263   1.0000000
B2   B   0.604390790549251   0.658118050641324   0.111103814308263   1.0000000
B2   B   0.618561827709047   0.809638781187131   0.111023292686082   1.0000000
B2   B   0.761641687243566   0.952014964698827   0.110998331473167   1.0000000
B2   B   0.762481875695068   0.095484452547688   0.111047270700232   1.0000000
B2   B   0.762481875695068   0.238426116838377   0.111047270700232   1.0000000
B2   B   0.761641687243566   0.381057127791739   0.110998331473167   1.0000000
B2   B   0.756952247000474   0.522755886752640   0.111018241211842   1.0000000
B2   B   0.755178142284066   0.663304273766029   0.111035752324309   1.0000000
B2   B   0.756952247000474   0.805626765495837   0.111018241211842   1.0000000
N2   N   0.950534360696994   0.903408882681008   0.110984200501964   1.0000000
N2   N   0.952228601899651   0.047133286146434   0.110981341763340   1.0000000
N2   N   0.953754097423499   0.191107811711224   0.111031601364387   1.0000000
N2   N   0.953754097423499   0.334073267830273   0.111031601364387   1.0000000
N2   N   0.952228601899651   0.476522297871215   0.110981341763340   1.0000000
N2   N   0.950534360696994   0.618554171690982   0.110984200501964   1.0000000
N2   N   0.949836967287948   0.760632830481475   0.110991315400246   1.0000000
N2   N   0.093981697689436   0.904084060714467   0.110962838394589   1.0000000
N2   N   0.095327267423548   0.047712879382141   0.110994302214798   1.0000000
N2   N   0.097288068005599   0.191713115719911   0.110978639839379   1.0000000
N2   N   0.098009657218196   0.334719175446099   0.110991670378458   1.0000000
N2   N   0.097288068005599   0.477003645959689   0.110978639839379   1.0000000
N2   N   0.095327267423548   0.619043081716408   0.110994302214798   1.0000000
N2   N   0.093981697689436   0.761328042205973   0.110962838394589   1.0000000
N2   N   0.237337094212785   0.904383749721891   0.110968234415130   1.0000000
N2   N   0.237826646255073   0.047548412179779   0.111013401390242   1.0000000
N2   N   0.240221712190004   0.192088700593255   0.111019987245833   1.0000000
N2   N   0.243079759870310   0.336502267089643   0.110991961626346   1.0000000
N2   N   0.243079759870310   0.478006186454660   0.110991961626346   1.0000000
N2   N   0.240221712190004   0.619561705271746   0.111019987245833   1.0000000
N2   N   0.237826646255073   0.761706927750298   0.111013401390242   1.0000000
N2   N   0.380684196946850   0.904681153794645   0.111002043670782   1.0000000
N2   N   0.380684196946850   0.047431736827207   0.111002043670782   1.0000000
N2   N   0.381346608009159   0.190634826015382   0.111067634145740   1.0000000
N2   N   0.386202367612336   0.337008855980541   0.111068978366171   1.0000000
N2   N   0.392305435716890   0.481867064695442   0.111063538844954   1.0000000
N2   N   0.386202367612336   0.620622205306791   0.111068978366171   1.0000000
N2   N   0.381346608009159   0.762140475668780   0.111067634145740   1.0000000
N2   N   0.523896193380611   0.905234368777202   0.111002846124125   1.0000000
N2   N   0.523902305054371   0.047664643586690   0.110951767362812   1.0000000
N2   N   0.523896193380611   0.190090518278411   0.111002846124125   1.0000000
N2   N   0.524070364298688   0.332494192928548   0.111050841712543   1.0000000
N2   N   0.524070364298688   0.763004865045142   0.111050841712543   1.0000000
N2   N   0.666496800861189   0.904646177711561   0.110980136560654   1.0000000
N2   N   0.667045255744211   0.047837719262643   0.110996291391889   1.0000000
N2   N   0.667045255744211   0.190634518600575   0.110996291391889   1.0000000
N2   N   0.666496800861189   0.333279316824630   0.110980136560654   1.0000000
N2   N   0.659996619051065   0.475155885911028   0.111025147038378   1.0000000
N2   N   0.657948623307865   0.614688658491931   0.111071512700432   1.0000000
N2   N   0.659996619051065   0.756269426815041   0.111025147038378   1.0000000
N2   N   0.806973595778558   0.902271166420010   0.110978836355087   1.0000000
N2   N   0.809887019623933   0.047556894921969   0.111011481689416   1.0000000
N2   N   0.810366029103924   0.190896505610965   0.111063574599889   1.0000000
N2   N   0.809887019623933   0.333757106819968   0.111011481689416   1.0000000
N2   N   0.806973595778558   0.476131123032550   0.110978836355087   1.0000000
N2   N   0.805185167988263   0.617564914912489   0.111007769617685   1.0000000
N2   N   0.805185167988263   0.759048946750778   0.111007769617685   1.0000000


