data_1
_audit_creation_method   'vasp2cif'
_cell_length_a    17.52789999999977
_cell_length_b    17.52789999999977
_cell_length_c    15.0
_cell_angle_alpha    90.0
_cell_angle_beta    90.0
_cell_angle_gamma    119.99999999999916

_symmetry_space_group_name_H-M    'P 1'
loop_
_atom_site_label
_atom_site_type_symbol
_atom_site_fract_x
_atom_site_fract_y
_atom_site_fract_z
_atom_site_occupancy
B2   B   0.904599736581008   0.952245363830750   0.111016712774228   1.0000000
B2   B   0.904780443672292   0.095221303019708   0.111034009235761   1.0000000
B2   B   0.904815555576909   0.238126784614012   0.111031480834403   1.0000000
B2   B   0.904776002808516   0.380980057861489   0.111007837450206   1.0000000
B2   B   0.904593816360597   0.523762845190633   0.111006683650559   1.0000000
B2   B   0.904613528904413   0.666578725665768   0.111031760866073   1.0000000
B2   B   0.904616266389792   0.809473821843104   0.111026984126549   1.0000000
B2   B   0.047583702553042   0.952418020811953   0.111013843102725   1.0000000
B2   B   0.047756351511252   0.095401983890999   0.111016712301227   1.0000000
B2   B   0.047792051337718   0.238217802514238   0.111009081785337   1.0000000
B2   B   0.047778784161218   0.380988615286467   0.111021650853147   1.0000000
B2   B   0.047753807841319   0.523768522690991   0.111012479855598   1.0000000
B2   B   0.047594096012807   0.666607335143380   0.111019560679931   1.0000000
B2   B   0.047577672763118   0.809510894125062   0.111010149132189   1.0000000
B2   B   0.190490855567936   0.952424090329886   0.111010147606192   1.0000000
B2   B   0.190527879192887   0.095385446318213   0.111026980002552   1.0000000
B2   B   0.190997919241714   0.238679971754095   0.111021147038835   1.0000000
B2   B   0.190778387976190   0.381099954665545   0.111006504694167   1.0000000
B2   B   0.190990526164485   0.523748537319173   0.111027654911563   1.0000000
B2   B   0.190522742611559   0.666577820814663   0.111036734063995   1.0000000
B2   B   0.190500553858781   0.809501140682218   0.111008707008311   1.0000000
B2   B   0.333394400561618   0.952407627821196   0.111019563093929   1.0000000
B2   B   0.333422988311231   0.095388211015589   0.111031756489073   1.0000000
B2   B   0.333438115133309   0.238316294660569   0.111041489449452   1.0000000
B2   B   0.334407434217682   0.381864658368044   0.111019105843325   1.0000000
B2   B   0.334411119976226   0.523984178794352   0.111024974507138   1.0000000
B2   B   0.333432540741605   0.666569162032395   0.111032955126867   1.0000000
B2   B   0.333423832505335   0.809478886231428   0.111036737596998   1.0000000
B2   B   0.476233164728010   0.952247773088685   0.111012485166599   1.0000000
B2   B   0.476238896315364   0.095408006315400   0.111006692343559   1.0000000
B2   B   0.476252235542417   0.238681800987481   0.111031746504951   1.0000000
B2   B   0.476023381013312   0.381865244300133   0.111036190793373   1.0000000
B2   B   0.476017605638644   0.665590737363776   0.111024975021145   1.0000000
B2   B   0.476253178470826   0.809011160903515   0.111027660648563   1.0000000
B2   B   0.619013123685536   0.952222900255783   0.111021652960148   1.0000000
B2   B   0.619021612486510   0.095225684473485   0.111007838536207   1.0000000
B2   B   0.619017331081737   0.238218556944120   0.111013500426127   1.0000000
B2   B   0.618900399756596   0.381101334452404   0.111014569247997   1.0000000
B2   B   0.618136324669866   0.523978286189690   0.111036185535371   1.0000000
B2   B   0.618136991086950   0.665594289498315   0.111019105556323   1.0000000
B2   B   0.618901788494454   0.809223381426810   0.111006500346164   1.0000000
B2   B   0.761783938013761   0.952209668189281   0.111009084011332   1.0000000
B2   B   0.761874911146988   0.095186120957088   0.111031483237402   1.0000000
B2   B   0.761875944781873   0.238125760398124   0.111045687172014   1.0000000
B2   B   0.761783265439880   0.380984424349263   0.111013492019128   1.0000000
B2   B   0.761319951188516   0.523749447264586   0.111031738540954   1.0000000
B2   B   0.761685364110429   0.666563565411689   0.111041498077452   1.0000000
B2   B   0.761321699669907   0.809003797440286   0.111021149512831   1.0000000
C2   C   0.476205318876248   0.523796336670748   0.111106449201392   1.0000000
N2   N   0.952300911306874   0.904727627762967   0.111013506207823   1.0000000
N2   N   0.952396350100137   0.047605367209862   0.111015932225472   1.0000000
N2   N   0.952475915987737   0.190513107887436   0.111015564385973   1.0000000
N2   N   0.952470816846731   0.333390114370666   0.111017324607484   1.0000000
N2   N   0.952395409193310   0.476209148520810   0.110998117703963   1.0000000
N2   N   0.952301188377541   0.618999105070217   0.111016052555950   1.0000000
N2   N   0.952283981621264   0.761860131980333   0.111015607277067   1.0000000
N2   N   0.095220479458263   0.904781273009739   0.111007890726088   1.0000000
N2   N   0.095274077675035   0.047700807508126   0.111013512704820   1.0000000
N2   N   0.095603477611645   0.190809129853697   0.111013768356612   1.0000000
N2   N   0.095469273619978   0.333446672672470   0.111010043899630   1.0000000
N2   N   0.095599517608388   0.476212650658709   0.111013393070798   1.0000000
N2   N   0.095270254176693   0.618997802128004   0.111018144107512   1.0000000
N2   N   0.095225839437857   0.761878993846188   0.111007981800425   1.0000000
N2   N   0.238122718314814   0.904775871320142   0.111007982692426   1.0000000
N2   N   0.238141597396671   0.047717787342733   0.111015599854070   1.0000000
N2   N   0.238205555767680   0.190678060618187   0.111019746930068   1.0000000
N2   N   0.238968377268528   0.334219003168157   0.111009735640249   1.0000000
N2   N   0.238971569272521   0.476181403092239   0.111011134157733   1.0000000
N2   N   0.238202422458367   0.618961131664967   0.111021264290019   1.0000000
N2   N   0.238144539478303   0.761857094716685   0.111014809654070   1.0000000
N2   N   0.381003868974996   0.904731371606307   0.111018148257515   1.0000000
N2   N   0.381002622116780   0.047700562542458   0.111016060303950   1.0000000
N2   N   0.381038242997742   0.190679486558878   0.111024792695605   1.0000000
N2   N   0.380990175632805   0.333416160510871   0.111029902747944   1.0000000
N2   N   0.383528065757916   0.477478757770360   0.111025577007297   1.0000000
N2   N   0.380989132280796   0.619012665678205   0.111020806610073   1.0000000
N2   N   0.381040606824031   0.761799284421632   0.111021268911019   1.0000000
N2   N   0.523789081569291   0.904402077907609   0.111013406848797   1.0000000
N2   N   0.523792509828189   0.047606252566692   0.110998118148969   1.0000000
N2   N   0.523789355985632   0.190814336327256   0.111013737671458   1.0000000
N2   N   0.523821888200862   0.334220666407401   0.111021329026520   1.0000000
N2   N   0.522528415380943   0.477473181244062   0.111030898943657   1.0000000
N2   N   0.522522901512641   0.616473616381084   0.111025578585299   1.0000000
N2   N   0.523820379520766   0.761030287055477   0.111011131341731   1.0000000
N2   N   0.666555117939527   0.904532473853022   0.111010041686631   1.0000000
N2   N   0.666611555360333   0.047530837402274   0.111017323139488   1.0000000
N2   N   0.666613684525061   0.190509756897887   0.111020591474197   1.0000000
N2   N   0.666555726848856   0.333446083700145   0.111007120651364   1.0000000
N2   N   0.665780997724599   0.476179827809135   0.111021308627520   1.0000000
N2   N   0.666585470133129   0.619011518912194   0.111029905382942   1.0000000
N2   N   0.665782663285840   0.761033380199471   0.111009728509249   1.0000000
N2   N   0.809192582662306   0.904398237422358   0.111013768732617   1.0000000
N2   N   0.809488617389566   0.047525793085260   0.111015574072972   1.0000000
N2   N   0.809523019406874   0.190478635285125   0.111024809866279   1.0000000
N2   N   0.809491981210110   0.333388000635941   0.111020585534201   1.0000000
N2   N   0.809187555227745   0.476212398464372   0.111013717160456   1.0000000
N2   N   0.809322234808121   0.618963461049259   0.111024808048607   1.0000000
N2   N   0.809323601475813   0.761796136016320   0.111019758226063   1.0000000


