data_1
_audit_creation_method   'vasp2cif'
_cell_length_a    14.93631414619966
_cell_length_b    14.936314146199727
_cell_length_c    13.341276283792837
_cell_angle_alpha    90.0
_cell_angle_beta    90.0
_cell_angle_gamma    119.99999999999984

_symmetry_space_group_name_H-M    'P 1'
loop_
_atom_site_label
_atom_site_type_symbol
_atom_site_fract_x
_atom_site_fract_y
_atom_site_fract_z
_atom_site_occupancy
Pb2   Pb   0.444444444444443   0.388888888888886   0.375000000000000   1.0000000
N2   N   0.111158834285647   0.055618243331605   0.125215179448689   1.0000000
N2   N   0.611018304938085   0.555454712626341   0.121220989472962   1.0000000
N2   N   0.444459409045952   0.055618243331605   0.125215179448689   1.0000000
N2   N   0.944420095737230   0.555534691600050   0.125369298597792   1.0000000
N2   N   0.777777777777779   0.055555555555557   0.124939770770284   1.0000000
N2   N   0.111111111111114   0.722222222222221   0.624768553159307   1.0000000
N2   N   0.444459409045952   0.722174499047694   0.624784820551309   1.0000000
N2   N   0.277878620706985   0.222315028395250   0.628779010527030   1.0000000
N2   N   0.777715090001721   0.722174499047694   0.624784820551309   1.0000000
N2   N   0.611085100934995   0.222248232398322   0.625375221923605   1.0000000
N2   N   0.944450935470988   0.222218128247389   0.624809131414460   1.0000000
N2   N   0.277798641733292   0.722218737470513   0.125369298597792   1.0000000
N2   N   0.111163131463320   0.222248232398322   0.124624778076398   1.0000000
N2   N   0.444436407688265   0.222315028395250   0.121220989472962   1.0000000
N2   N   0.611085100934995   0.722170201870026   0.124624778076398   1.0000000
N2   N   0.944420095737230   0.722218737470513   0.125369298597792   1.0000000
N2   N   0.777767192776388   0.222218128247389   0.125190868585534   1.0000000
N2   N   0.111114595862822   0.888913237596098   0.624630701402218   1.0000000
N2   N   0.444464915338276   0.888899124335800   0.624549962397660   1.0000000
N2   N   0.277878620706985   0.388896925645064   0.628779010527030   1.0000000
N2   N   0.611018304938085   0.388896925645064   0.628779010527030   1.0000000
N2   N   0.777767192776388   0.888882397862341   0.624809131414460   1.0000000
N2   N   0.944434208997529   0.388868417995052   0.624549962397660   1.0000000
N2   N   0.111158834285647   0.388873924287377   0.125215179448689   1.0000000
N2   N   0.277798641733292   0.888913237596098   0.125369298597792   1.0000000
N2   N   0.611115205085941   0.888882397862341   0.125190868585534   1.0000000
N2   N   0.444444444444443   0.388888888888886   0.106582503044739   1.0000000
N2   N   0.944434208997529   0.888899124335800   0.125450037602342   1.0000000
N2   N   0.777715090001720   0.388873924287377   0.125215179448689   1.0000000
N2   N   0.277802462987189   0.555530870346156   0.625287840098670   1.0000000
N2   N   0.111158834285647   0.055618243331605   0.624784820551309   1.0000000
N2   N   0.611018304938085   0.555454712626341   0.628779010527030   1.0000000
N2   N   0.444459409045952   0.055618243331605   0.624784820551309   1.0000000
N2   N   0.944420095737230   0.555534691600050   0.624630701402218   1.0000000
N2   N   0.111114595862822   0.555534691600050   0.125369298597792   1.0000000
N2   N   0.777777777777779   0.055555555555557   0.625060229229714   1.0000000
N2   N   0.277802462987189   0.055604925974369   0.124712159901336   1.0000000
N2   N   0.444436407688265   0.555454712626341   0.121220989472962   1.0000000
N2   N   0.777728407358957   0.555530870346156   0.124712159901336   1.0000000
N2   N   0.611115205085941   0.055566140556944   0.125190868585534   1.0000000
N2   N   0.444436407688265   0.555454712626341   0.628779010527030   1.0000000
N2   N   0.944450935470988   0.055566140556944   0.125190868585534   1.0000000
N2   N   0.277798641733292   0.722218737470513   0.624630701402218   1.0000000
N2   N   0.111163131463320   0.222248232398322   0.625375221923605   1.0000000
N2   N   0.444436407688265   0.222315028395250   0.628779010527030   1.0000000
N2   N   0.611085100934995   0.722170201870026   0.625375221923605   1.0000000
N2   N   0.944420095737230   0.722218737470513   0.624630701402218   1.0000000
N2   N   0.777767192776388   0.222218128247389   0.624809131414460   1.0000000
N2   N   0.111111111111114   0.722222222222221   0.125231446840691   1.0000000
N2   N   0.444459409045952   0.722174499047694   0.125215179448689   1.0000000
N2   N   0.277878620706985   0.222315028395250   0.121220989472962   1.0000000
N2   N   0.777715090001720   0.722174499047694   0.125215179448689   1.0000000
N2   N   0.611085100934995   0.222248232398322   0.124624778076398   1.0000000
N2   N   0.944450935470988   0.222218128247389   0.125190868585534   1.0000000
N2   N   0.111158834285647   0.388873924287377   0.624784820551309   1.0000000
N2   N   0.277798641733292   0.888913237596098   0.624630701402218   1.0000000
N2   N   0.611115205085941   0.888882397862341   0.624809131414460   1.0000000
N2   N   0.444444444444443   0.388888888888886   0.643417496955264   1.0000000
N2   N   0.944434208997529   0.888899124335800   0.624549962397660   1.0000000
N2   N   0.111114595862822   0.888913237596098   0.125369298597792   1.0000000
N2   N   0.777715090001721   0.388873924287377   0.624784820551309   1.0000000
N2   N   0.444464915338276   0.888899124335800   0.125450037602342   1.0000000
N2   N   0.277878620706985   0.388896925645064   0.121220989472962   1.0000000
N2   N   0.277802462987189   0.555530870346156   0.124712159901336   1.0000000
N2   N   0.611018304938085   0.388896925645064   0.121220989472962   1.0000000
N2   N   0.777767192776388   0.888882397862341   0.125190868585534   1.0000000
N2   N   0.944434208997529   0.388868417995052   0.125450037602342   1.0000000
N2   N   0.111114595862822   0.555534691600050   0.624630701402218   1.0000000
N2   N   0.277802462987189   0.055604925974369   0.625287840098670   1.0000000
N2   N   0.777728407358957   0.555530870346156   0.625287840098670   1.0000000
N2   N   0.611115205085941   0.055566140556944   0.624809131414460   1.0000000
N2   N   0.944450935470988   0.055566140556944   0.624809131414460   1.0000000
N2   N   0.053640016238302   0.109918106240524   0.375000000000000   1.0000000
N2   N   0.556350709084475   0.612701418168956   0.375000000000000   1.0000000
N2   N   0.386967977056224   0.099608573412899   0.375000000000000   1.0000000
N2   N   0.892864509567847   0.613098921450609   0.375000000000000   1.0000000
N2   N   0.722575764274438   0.110757569058909   0.375000000000000   1.0000000
N2   N   0.055559123271338   0.777774210061988   0.875000000000000   1.0000000
N2   N   0.388878680631834   0.777782586699503   0.875000000000000   1.0000000
N2   N   0.222218959977682   0.277776146655509   0.875000000000000   1.0000000
N2   N   0.722227820557625   0.777775748969841   0.875000000000000   1.0000000
N2   N   0.555557186677822   0.277776146655509   0.875000000000000   1.0000000
N2   N   0.888893201442421   0.277786402884872   0.875000000000000   1.0000000
N2   N   0.221437095850921   0.777385214592113   0.375000000000000   1.0000000
N2   N   0.053640016238302   0.277055243331117   0.375000000000000   1.0000000
N2   N   0.369255267269392   0.238510534538791   0.375000000000000   1.0000000
N2   N   0.556278090002221   0.779693317095041   0.375000000000000   1.0000000
N2   N   0.892163074009809   0.780407240539821   0.375000000000000   1.0000000
N2   N   0.723415227092801   0.277055243331117   0.375000000000000   1.0000000
N2   N   0.055550746633841   0.944429427265663   0.875000000000000   1.0000000
N2   N   0.388878680631834   0.944429427265663   0.875000000000000   1.0000000
N2   N   0.222198356618466   0.444465204236345   0.875000000000000   1.0000000
N2   N   0.555665526429919   0.444499429881624   0.875000000000000   1.0000000
N2   N   0.722220571286852   0.944441142573660   0.875000000000000   1.0000000
N2   N   0.888903906067666   0.444454652701495   0.875000000000000   1.0000000
N2   N   0.052926092793543   0.445089166803359   0.375000000000000   1.0000000
N2   N   0.220234411882744   0.940468823765481   0.375000000000000   1.0000000
N2   N   0.556110450022802   0.944721891678084   0.375000000000000   1.0000000
N2   N   0.369255267269390   0.464078066063939   0.375000000000000   1.0000000
N2   N   0.888611441655245   0.944721891678084   0.375000000000000   1.0000000
N2   N   0.733724759920445   0.446365356277105   0.375000000000000   1.0000000
N2   N   0.222207201614630   0.611126131718714   0.875000000000000   1.0000000
N2   N   0.055557584363497   0.111105512775703   0.875000000000000   1.0000000
N2   N   0.555557186677822   0.611114373355653   0.875000000000000   1.0000000
N2   N   0.388868129096984   0.111066485715458   0.875000000000000   1.0000000
N2   N   0.888918930104065   0.611126131718714   0.875000000000000   1.0000000
N2   N   0.055948118741207   0.611896237482407   0.375000000000000   1.0000000
N2   N   0.722220571286852   0.111112762046502   0.875000000000000   1.0000000
N2   N   0.212640596356671   0.099608573412899   0.375000000000000   1.0000000
N2   N   0.386967977056224   0.620692736976678   0.375000000000000   1.0000000
N2   N   0.733724759920445   0.620692736976678   0.375000000000000   1.0000000
N2   N   0.556278090002221   0.109918106240524   0.375000000000000   1.0000000
N2   N   0.388868129096984   0.611134976714869   0.875000000000000   1.0000000
N2   N   0.888181804784456   0.110757569058909   0.375000000000000   1.0000000
N2   N   0.222215086790657   0.777774210061988   0.875000000000000   1.0000000
N2   N   0.055557584363497   0.277785404921127   0.875000000000000   1.0000000
N2   N   0.388833903451705   0.277667806903422   0.875000000000000   1.0000000
N2   N   0.555547928412198   0.777775748969841   0.875000000000000   1.0000000
N2   N   0.888903906067666   0.777782586699503   0.875000000000000   1.0000000
N2   N   0.722227820557625   0.277785404921127   0.875000000000000   1.0000000
N2   N   0.055948118741207   0.777385214592113   0.375000000000000   1.0000000
N2   N   0.388244166529970   0.780407240539821   0.375000000000000   1.0000000
N2   N   0.220631915164383   0.276982624248858   0.375000000000000   1.0000000
N2   N   0.723415227092801   0.779693317095041   0.375000000000000   1.0000000
N2   N   0.556350709084475   0.276982624248858   0.375000000000000   1.0000000
N2   N   0.888611441655245   0.277222883310524   0.375000000000000   1.0000000
N2   N   0.055550746633841   0.444454652701495   0.875000000000000   1.0000000
N2   N   0.222207201614630   0.944414403229264   0.875000000000000   1.0000000
N2   N   0.555546930448471   0.944440131890908   0.875000000000000   1.0000000
N2   N   0.388833903451705   0.444499429881624   0.875000000000000   1.0000000
N2   N   0.888893201442421   0.944440131890908   0.875000000000000   1.0000000
N2   N   0.052926092793543   0.941170259323519   0.375000000000000   1.0000000
N2   N   0.722266847617873   0.444465204236345   0.875000000000000   1.0000000
N2   N   0.388244166529970   0.941170259323519   0.375000000000000   1.0000000
N2   N   0.212640596356671   0.446365356277105   0.375000000000000   1.0000000
N2   N   0.220234411882744   0.613098921450609   0.375000000000000   1.0000000
N2   N   0.594822798794545   0.464078066063939   0.375000000000000   1.0000000
N2   N   0.722575764274438   0.945151528548873   0.375000000000000   1.0000000
N2   N   0.892163074009809   0.445089166803359   0.375000000000000   1.0000000
N2   N   0.055559123271338   0.611118246542690   0.875000000000000   1.0000000
N2   N   0.222198356618466   0.111066485715458   0.875000000000000   1.0000000
N2   N   0.722266847617873   0.611134976714869   0.875000000000000   1.0000000
N2   N   0.555547928412198   0.111105512775703   0.875000000000000   1.0000000
N2   N   0.888892190759669   0.111112762046502   0.875000000000000   1.0000000
B2   B   0.105134753406228   0.050101028903139   0.375000000000000   1.0000000
B2   B   0.624617840501586   0.566473095272995   0.375000000000000   1.0000000
B2   B   0.444966275496917   0.050101028903139   0.375000000000000   1.0000000
B2   B   0.946128860123750   0.556042175267710   0.375000000000000   1.0000000
B2   B   0.777777777777779   0.055555555555557   0.375000000000000   1.0000000
B2   B   0.111111111111114   0.722222222222221   0.875000000000000   1.0000000
B2   B   0.444418566709907   0.722163639726925   0.875000000000000   1.0000000
B2   B   0.277884701519307   0.222282704682103   0.875000000000000   1.0000000
B2   B   0.777745073017021   0.722163639726925   0.875000000000000   1.0000000
B2   B   0.611055878824747   0.222277454508580   0.875000000000000   1.0000000
B2   B   0.944487858248048   0.222251075073969   0.875000000000000   1.0000000
B2   B   0.277291158065638   0.723420018189390   0.375000000000000   1.0000000
B2   B   0.109810716377982   0.221572024855657   0.375000000000000   1.0000000
B2   B   0.441855254771420   0.208715492831753   0.375000000000000   1.0000000
B2   B   0.611761308477681   0.723522616955352   0.375000000000000   1.0000000
B2   B   0.946128860123750   0.723420018189390   0.375000000000000   1.0000000
B2   B   0.777938645737375   0.221428947852029   0.375000000000000   1.0000000
B2   B   0.111122807187764   0.888898708760614   0.875000000000000   1.0000000
B2   B   0.444428244553748   0.888880788943548   0.875000000000000   1.0000000
B2   B   0.277884701519307   0.388935330170530   0.875000000000000   1.0000000
B2   B   0.611050628651239   0.388935330170530   0.875000000000000   1.0000000
B2   B   0.777763216825921   0.888845475085280   0.875000000000000   1.0000000
B2   B   0.944452544389780   0.388905088779580   0.875000000000000   1.0000000
B2   B   0.105134753406228   0.388367057836412   0.375000000000000   1.0000000
B2   B   0.277291158065638   0.887204473209579   0.375000000000000   1.0000000
B2   B   0.611904385481299   0.889843031218673   0.375000000000000   1.0000000
B2   B   0.944145022118366   0.889188311214963   0.375000000000000   1.0000000
B2   B   0.783232304430204   0.388367057836412   0.375000000000000   1.0000000
B2   B   0.277794988990073   0.555538344343264   0.875000000000000   1.0000000
B2   B   0.111169693606412   0.055588260316319   0.875000000000000   1.0000000
B2   B   0.611050628651239   0.555448631814029   0.875000000000000   1.0000000
B2   B   0.444418566709907   0.055588260316319   0.875000000000000   1.0000000
B2   B   0.944434624572715   0.555557431760483   0.875000000000000   1.0000000
B2   B   0.109913315143961   0.556042175267710   0.375000000000000   1.0000000
B2   B   0.777777777777779   0.055555555555557   0.875000000000000   1.0000000
B2   B   0.274992474277241   0.049984948554498   0.375000000000000   1.0000000
B2   B   0.441855254771420   0.566473095272995   0.375000000000000   1.0000000
B2   B   0.783348384778853   0.558340859056101   0.375000000000000   1.0000000
B2   B   0.611904385481299   0.055394687595955   0.375000000000000   1.0000000
B2   B   0.444398003162799   0.555448631814029   0.875000000000000   1.0000000
B2   B   0.943490302114656   0.055394687595955   0.375000000000000   1.0000000
B2   B   0.277775901572845   0.722210526145569   0.875000000000000   1.0000000
B2   B   0.111221575683824   0.222277454508580   0.875000000000000   1.0000000
B2   B   0.444398003162799   0.222282704682103   0.875000000000000   1.0000000
B2   B   0.611055878824747   0.722111757649529   0.875000000000000   1.0000000
B2   B   0.944434624572715   0.722210526145569   0.875000000000000   1.0000000
B2   B   0.777763216825921   0.222251075073969   0.875000000000000   1.0000000
B2   B   0.111111111111114   0.722222222222221   0.375000000000000   1.0000000
B2   B   0.444966275496917   0.728198579927103   0.375000000000000   1.0000000
B2   B   0.266860238060333   0.208715492831753   0.375000000000000   1.0000000
B2   B   0.783232304430204   0.728198579927103   0.375000000000000   1.0000000
B2   B   0.611761308477681   0.221572024855657   0.375000000000000   1.0000000
B2   B   0.943490302114656   0.221428947852029   0.375000000000000   1.0000000
B2   B   0.111169693606412   0.388914766623422   0.875000000000000   1.0000000
B2   B   0.277775901572845   0.888898708760614   0.875000000000000   1.0000000
B2   B   0.611082258259361   0.888845475085280   0.875000000000000   1.0000000
B2   B   0.444444444444443   0.388888888888886   0.875000000000000   1.0000000
B2   B   0.944452544389780   0.888880788943548   0.875000000000000   1.0000000
B2   B   0.109913315143961   0.887204473209579   0.375000000000000   1.0000000
B2   B   0.777745073017021   0.388914766623422   0.875000000000000   1.0000000
B2   B   0.445043289096619   0.889188311214963   0.375000000000000   1.0000000
B2   B   0.266860238060333   0.391478078561909   0.375000000000000   1.0000000
B2   B   0.274992474277241   0.558340859056101   0.375000000000000   1.0000000
B2   B   0.624617840501586   0.391478078561909   0.375000000000000   1.0000000
B2   B   0.777938645737375   0.889843031218673   0.375000000000000   1.0000000
B2   B   0.944145022118366   0.388290044236710   0.375000000000000   1.0000000
B2   B   0.111122807187764   0.555557431760483   0.875000000000000   1.0000000
B2   B   0.277794988990073   0.055589977980141   0.875000000000000   1.0000000
B2   B   0.777743355353190   0.555538344343264   0.875000000000000   1.0000000
B2   B   0.611082258259361   0.055570116507406   0.875000000000000   1.0000000
B2   B   0.944487858248048   0.055570116507406   0.875000000000000   1.0000000
B2   B   0.055671743950914   0.111217898843430   0.125245237222599   1.0000000
B2   B   0.555420714951481   0.610841429902990   0.122586355620357   1.0000000
B2   B   0.388981422205495   0.111444654783270   0.124254824390839   1.0000000
B2   B   0.888715251661541   0.611024292497445   0.125415330258883   1.0000000
B2   B   0.722206789866703   0.111126543466626   0.125214859372745   1.0000000
B2   B   0.055527932513078   0.777805400820263   0.624555000448315   1.0000000
B2   B   0.388951142456740   0.777723727912331   0.624422978807432   1.0000000
B2   B   0.222491903430348   0.277912618381841   0.627413644379644   1.0000000
B2   B   0.722115434489919   0.777661589382398   0.624754762777409   1.0000000
B2   B   0.555420714951481   0.277912618381841   0.627413644379644   1.0000000
B2   B   0.888879268213048   0.277758536426108   0.624557448410756   1.0000000
B2   B   0.222277468307178   0.777805400820263   0.125444999551713   1.0000000
B2   B   0.055671743950914   0.277787178440821   0.125245237222599   1.0000000
B2   B   0.389196916881357   0.278393833762735   0.117653135897819   1.0000000
B2   B   0.555546154892501   0.777661589382398   0.125245237222599   1.0000000
B2   B   0.888772585455574   0.777723727912331   0.125577021192576   1.0000000
B2   B   0.722115434489919   0.277787178440821   0.125245237222599   1.0000000
B2   B   0.055609605421011   0.944560747877755   0.624422978807432   1.0000000
B2   B   0.388951142456740   0.944560747877755   0.624422978807432   1.0000000
B2   B   0.222463232577775   0.444351911127834   0.625745175609161   1.0000000
B2   B   0.554939499570609   0.444136416451969   0.632346864102180   1.0000000
B2   B   0.722206789866703   0.944413579733417   0.624785140627268   1.0000000
B2   B   0.888772585455574   0.444382190876589   0.624422978807432   1.0000000
B2   B   0.055609605421011   0.444382190876589   0.125577021192576   1.0000000
B2   B   0.222309040835887   0.944618081671788   0.125415330258883   1.0000000
B2   B   0.555574796907220   0.944454065120281   0.125442551589260   1.0000000
B2   B   0.389196916881360   0.444136416451972   0.117653135897819   1.0000000
B2   B   0.888879268213048   0.944454065120281   0.125442551589260   1.0000000
B2   B   0.721888678550069   0.444351911127834   0.124254824390839   1.0000000
B2   B   0.222309040835887   0.611024292497445   0.624584669741115   1.0000000
B2   B   0.055671743950914   0.111217898843430   0.624754762777409   1.0000000
B2   B   0.555420714951481   0.610841429902990   0.627413644379644   1.0000000
B2   B   0.388981422205495   0.111444654783270   0.625745175609161   1.0000000
B2   B   0.888715251661541   0.611024292497445   0.624584669741115   1.0000000
B2   B   0.055527932513078   0.611055865026156   0.125444999551713   1.0000000
B2   B   0.722206789866703   0.111126543466626   0.624785140627268   1.0000000
B2   B   0.222463232577775   0.111444654783270   0.124254824390839   1.0000000
B2   B   0.388981422205495   0.610870100755569   0.124254824390839   1.0000000
B2   B   0.721888678550069   0.610870100755569   0.124254824390839   1.0000000
B2   B   0.555546154892501   0.111217898843430   0.125245237222599   1.0000000
B2   B   0.388981422205495   0.610870100755569   0.625745175609161   1.0000000
B2   B   0.888919753599911   0.111126543466626   0.125214859372745   1.0000000
B2   B   0.222277468307178   0.777805400820263   0.624555000448315   1.0000000
B2   B   0.055671743950914   0.277787178440821   0.624754762777409   1.0000000
B2   B   0.389196916881360   0.278393833762735   0.632346864102180   1.0000000
B2   B   0.555546154892501   0.777661589382398   0.624754762777409   1.0000000
B2   B   0.888772585455574   0.777723727912331   0.624422978807432   1.0000000
B2   B   0.722115434489919   0.277787178440827   0.624754762777409   1.0000000
B2   B   0.055527932513078   0.777805400820263   0.125444999551713   1.0000000
B2   B   0.388951142456740   0.777723727912331   0.125577021192576   1.0000000
B2   B   0.222491903430348   0.277912618381841   0.122586355620357   1.0000000
B2   B   0.722115434489919   0.777661589382398   0.125245237222599   1.0000000
B2   B   0.555420714951481   0.277912618381841   0.122586355620357   1.0000000
B2   B   0.888879268213048   0.277758536426108   0.125442551589260   1.0000000
B2   B   0.055609605421011   0.444382190876589   0.624422978807432   1.0000000
B2   B   0.222309040835887   0.944618081671788   0.624584669741115   1.0000000
B2   B   0.555574796907220   0.944454065120281   0.624557448410756   1.0000000
B2   B   0.389196916881360   0.444136416451969   0.632346864102180   1.0000000
B2   B   0.888879268213048   0.944454065120281   0.624557448410756   1.0000000
B2   B   0.055609605421011   0.944560747877755   0.125577021192576   1.0000000
B2   B   0.721888678550069   0.444351911127834   0.625745175609161   1.0000000
B2   B   0.388951142456740   0.944560747877755   0.125577021192576   1.0000000
B2   B   0.222463232577775   0.444351911127834   0.124254824390839   1.0000000
B2   B   0.222309040835887   0.611024292497445   0.125415330258883   1.0000000
B2   B   0.554939499570615   0.444136416451972   0.117653135897819   1.0000000
B2   B   0.722206789866703   0.944413579733417   0.125214859372745   1.0000000
B2   B   0.888772585455574   0.444382190876589   0.125577021192576   1.0000000
B2   B   0.055527932513078   0.611055865026156   0.624555000448315   1.0000000
B2   B   0.222463232577775   0.111444654783270   0.625745175609161   1.0000000
B2   B   0.721888678550069   0.610870100755569   0.625745175609161   1.0000000
B2   B   0.555546154892501   0.111217898843430   0.624754762777409   1.0000000
B2   B   0.888919753599911   0.111126543466626   0.624785140627268   1.0000000


