data_1
_audit_creation_method   'vasp2cif'
_cell_length_a    14.93631414619966
_cell_length_b    14.936314146199727
_cell_length_c    13.341276283792837
_cell_angle_alpha    90.0
_cell_angle_beta    90.0
_cell_angle_gamma    119.99999999999984

_symmetry_space_group_name_H-M    'P 1'
loop_
_atom_site_label
_atom_site_type_symbol
_atom_site_fract_x
_atom_site_fract_y
_atom_site_fract_z
_atom_site_occupancy
Se2   Se   0.444444444444443   0.388888888888886   0.375000000000000   1.0000000
N2   N   0.111108426844824   0.055545585583172   0.125272969306367   1.0000000
N2   N   0.611106994640465   0.555548942937224   0.124934817920696   1.0000000
N2   N   0.444437158738347   0.055545585583172   0.125272969306367   1.0000000
N2   N   0.944452031729671   0.555562164323301   0.125150176281473   1.0000000
N2   N   0.777777777777779   0.055555555555557   0.125050394899630   1.0000000
N2   N   0.111111111111114   0.722222222222221   0.624902981441833   1.0000000
N2   N   0.444437158738347   0.722224906488511   0.624727030693633   1.0000000
N2   N   0.277784390396112   0.222226338692871   0.625065182079297   1.0000000
N2   N   0.777787747750164   0.722224906488511   0.624727030693633   1.0000000
N2   N   0.611107651990058   0.222225681343277   0.624745416131399   1.0000000
N2   N   0.944446936571907   0.222227958266147   0.624904494391993   1.0000000
N2   N   0.277771169010035   0.722223200739698   0.125150176281473   1.0000000
N2   N   0.111118029353226   0.222225681343277   0.125254583868601   1.0000000
N2   N   0.444441948296752   0.222226338692871   0.124934817920696   1.0000000
N2   N   0.611107651990058   0.722215303980109   0.125254583868601   1.0000000
N2   N   0.944452031729671   0.722223200739698   0.125150176281473   1.0000000
N2   N   0.777781021694240   0.222227958266147   0.125095505608007   1.0000000
N2   N   0.111110132593637   0.888881301603658   0.624849823718527   1.0000000
N2   N   0.444436501486231   0.888884917409784   0.624893082716704   1.0000000
N2   N   0.277784390396112   0.388891385036577   0.625065182079297   1.0000000
N2   N   0.611106994640465   0.388891385036577   0.625065182079297   1.0000000
N2   N   0.777781021694240   0.888886396761422   0.624904494391993   1.0000000
N2   N   0.944448415923545   0.388896831847097   0.624893082716704   1.0000000
N2   N   0.111108426844824   0.388896174594981   0.125272969306367   1.0000000
N2   N   0.277771169010035   0.888881301603658   0.125150176281473   1.0000000
N2   N   0.611105375067189   0.888886396761422   0.125095505608007   1.0000000
N2   N   0.444444444444443   0.388888888888886   0.122380687123818   1.0000000
N2   N   0.944448415923545   0.888884917409784   0.125106917283295   1.0000000
N2   N   0.777787747750164   0.388896174594981   0.125272969306367   1.0000000
N2   N   0.277773751344710   0.555559581988626   0.624675565929421   1.0000000
N2   N   0.111108426844824   0.055545585583172   0.624727030693633   1.0000000
N2   N   0.611106994640465   0.555548942937224   0.625065182079297   1.0000000
N2   N   0.444437158738347   0.055545585583172   0.624727030693633   1.0000000
N2   N   0.944452031729671   0.555562164323301   0.624849823718527   1.0000000
N2   N   0.111110132593637   0.555562164323301   0.125150176281473   1.0000000
N2   N   0.777777777777779   0.055555555555557   0.624949605100370   1.0000000
N2   N   0.277773751344710   0.055547502689419   0.125324434070579   1.0000000
N2   N   0.444441948296752   0.555548942937224   0.124934817920696   1.0000000
N2   N   0.777785830643917   0.555559581988626   0.125324434070579   1.0000000
N2   N   0.611105375067189   0.055552311639096   0.125095505608007   1.0000000
N2   N   0.444441948296752   0.555548942937224   0.625065182079297   1.0000000
N2   N   0.944446936571907   0.055552311639096   0.125095505608007   1.0000000
N2   N   0.277771169010035   0.722223200739698   0.624849823718527   1.0000000
N2   N   0.111118029353226   0.222225681343277   0.624745416131399   1.0000000
N2   N   0.444441948296752   0.222226338692871   0.625065182079297   1.0000000
N2   N   0.611107651990058   0.722215303980109   0.624745416131399   1.0000000
N2   N   0.944452031729671   0.722223200739698   0.624849823718527   1.0000000
N2   N   0.777781021694240   0.222227958266147   0.624904494391993   1.0000000
N2   N   0.111111111111114   0.722222222222221   0.125097018558167   1.0000000
N2   N   0.444437158738347   0.722224906488511   0.125272969306367   1.0000000
N2   N   0.277784390396112   0.222226338692871   0.124934817920696   1.0000000
N2   N   0.777787747750164   0.722224906488511   0.125272969306367   1.0000000
N2   N   0.611107651990058   0.222225681343277   0.125254583868601   1.0000000
N2   N   0.944446936571907   0.222227958266147   0.125095505608007   1.0000000
N2   N   0.111108426844824   0.388896174594981   0.624727030693633   1.0000000
N2   N   0.277771169010035   0.888881301603658   0.624849823718527   1.0000000
N2   N   0.611105375067189   0.888886396761422   0.624904494391993   1.0000000
N2   N   0.444444444444443   0.388888888888886   0.627619312876182   1.0000000
N2   N   0.944448415923545   0.888884917409784   0.624893082716704   1.0000000
N2   N   0.111110132593637   0.888881301603658   0.125150176281473   1.0000000
N2   N   0.777787747750164   0.388896174594981   0.624727030693633   1.0000000
N2   N   0.444436501486231   0.888884917409784   0.125106917283295   1.0000000
N2   N   0.277784390396112   0.388891385036577   0.124934817920696   1.0000000
N2   N   0.277773751344710   0.555559581988626   0.125324434070579   1.0000000
N2   N   0.611106994640465   0.388891385036577   0.124934817920696   1.0000000
N2   N   0.777781021694240   0.888886396761422   0.125095505608007   1.0000000
N2   N   0.944448415923545   0.388896831847097   0.125106917283295   1.0000000
N2   N   0.111110132593637   0.555562164323301   0.624849823718527   1.0000000
N2   N   0.277773751344710   0.055547502689419   0.624675565929421   1.0000000
N2   N   0.777785830643917   0.555559581988626   0.624675565929421   1.0000000
N2   N   0.611105375067189   0.055552311639096   0.624904494391993   1.0000000
N2   N   0.944446936571907   0.055552311639096   0.624904494391993   1.0000000
N2   N   0.054511363726414   0.110422531753768   0.375000000000000   1.0000000
N2   N   0.556062470720367   0.612124941440726   0.375000000000000   1.0000000
N2   N   0.387658757953656   0.104955470581876   0.375000000000000   1.0000000
N2   N   0.891034022370198   0.612183677851770   0.375000000000000   1.0000000
N2   N   0.722414362028622   0.110918971304714   0.375000000000000   1.0000000
N2   N   0.055553701158630   0.777779632174706   0.875000000000000   1.0000000
N2   N   0.388894463067961   0.777780665158393   0.875000000000000   1.0000000
N2   N   0.222221966534390   0.277777649933860   0.875000000000000   1.0000000
N2   N   0.722221994028971   0.777780111612207   0.875000000000000   1.0000000
N2   N   0.555555683399469   0.277777649933860   0.875000000000000   1.0000000
N2   N   0.888887669313569   0.277775338627137   0.875000000000000   1.0000000
N2   N   0.221834409227437   0.777583871280386   0.375000000000000   1.0000000
N2   N   0.054511363726414   0.277422165305975   0.375000000000000   1.0000000
N2   N   0.377025605209768   0.254051210419551   0.375000000000000   1.0000000
N2   N   0.555911168027361   0.778821969606921   0.375000000000000   1.0000000
N2   N   0.890561221440788   0.779149364637309   0.375000000000000   1.0000000
N2   N   0.722910801579568   0.277422165305975   0.375000000000000   1.0000000
N2   N   0.055552668174949   0.944447131242910   0.875000000000000   1.0000000
N2   N   0.388894463067961   0.944447131242910   0.875000000000000   1.0000000
N2   N   0.222220791964220   0.444441827483961   0.875000000000000   1.0000000
N2   N   0.555565034108397   0.444449183720863   0.875000000000000   1.0000000
N2   N   0.722222723670876   0.944445447341760   0.875000000000000   1.0000000
N2   N   0.888886202090418   0.444438870265368   0.875000000000000   1.0000000
N2   N   0.054183968696026   0.444745190136808   0.375000000000000   1.0000000
N2   N   0.221149655481565   0.942299310963131   0.375000000000000   1.0000000
N2   N   0.555856628884351   0.944594981108840   0.375000000000000   1.0000000
N2   N   0.377025605209768   0.456307728123560   0.375000000000000   1.0000000
N2   N   0.888738352224489   0.944594981108840   0.375000000000000   1.0000000
N2   N   0.728377862751467   0.445674575379673   0.375000000000000   1.0000000
N2   N   0.222223760707419   0.611109572625917   0.875000000000000   1.0000000
N2   N   0.055553221721137   0.111111339304365   0.875000000000000   1.0000000
N2   N   0.555555683399469   0.611111366798945   0.875000000000000   1.0000000
N2   N   0.388891505849368   0.111112297813595   0.875000000000000   1.0000000
N2   N   0.888885811918490   0.611109572625917   0.875000000000000   1.0000000
N2   N   0.055749462052949   0.611498924105899   0.375000000000000   1.0000000
N2   N   0.722222723670876   0.111110609662459   0.875000000000000   1.0000000
N2   N   0.217296712628206   0.104955470581876   0.375000000000000   1.0000000
N2   N   0.387658757953656   0.616036620705129   0.375000000000000   1.0000000
N2   N   0.728377862751467   0.616036620705129   0.375000000000000   1.0000000
N2   N   0.555911168027361   0.110422531753768   0.375000000000000   1.0000000
N2   N   0.388891505849368   0.611112541369115   0.875000000000000   1.0000000
N2   N   0.888504609276085   0.110918971304714   0.375000000000000   1.0000000
N2   N   0.222225931016069   0.777779632174706   0.875000000000000   1.0000000
N2   N   0.055553221721137   0.277775215750107   0.875000000000000   1.0000000
N2   N   0.388884149612466   0.277768299224939   0.875000000000000   1.0000000
N2   N   0.555558117583228   0.777780111612207   0.875000000000000   1.0000000
N2   N   0.888886202090418   0.777780665158393   0.875000000000000   1.0000000
N2   N   0.722221994028971   0.277775215750107   0.875000000000000   1.0000000
N2   N   0.055749462052949   0.777583871280386   0.375000000000000   1.0000000
N2   N   0.388588143196521   0.779149364637309   0.375000000000000   1.0000000
N2   N   0.221208391892617   0.277270862612976   0.375000000000000   1.0000000
N2   N   0.722910801579568   0.778821969606921   0.375000000000000   1.0000000
N2   N   0.556062470720367   0.277270862612976   0.375000000000000   1.0000000
N2   N   0.888738352224489   0.277476704448985   0.375000000000000   1.0000000
N2   N   0.055552668174949   0.444438870265368   0.875000000000000   1.0000000
N2   N   0.222223760707419   0.944447521414838   0.875000000000000   1.0000000
N2   N   0.555557994706198   0.944445664019760   0.875000000000000   1.0000000
N2   N   0.388884149612466   0.444449183720863   0.875000000000000   1.0000000
N2   N   0.888887669313569   0.944445664019760   0.875000000000000   1.0000000
N2   N   0.054183968696026   0.942772111892540   0.375000000000000   1.0000000
N2   N   0.722221035519740   0.444441827483961   0.875000000000000   1.0000000
N2   N   0.388588143196521   0.942772111892540   0.375000000000000   1.0000000
N2   N   0.217296712628206   0.445674575379673   0.375000000000000   1.0000000
N2   N   0.221149655481565   0.612183677851770   0.375000000000000   1.0000000
N2   N   0.579282122913785   0.456307728123560   0.375000000000000   1.0000000
N2   N   0.722414362028622   0.944828724057244   0.375000000000000   1.0000000
N2   N   0.890561221440788   0.444745190136808   0.375000000000000   1.0000000
N2   N   0.055553701158630   0.611107402317266   0.875000000000000   1.0000000
N2   N   0.222220791964220   0.111112297813595   0.875000000000000   1.0000000
N2   N   0.722221035519740   0.611112541369115   0.875000000000000   1.0000000
N2   N   0.555558117583228   0.111111339304365   0.875000000000000   1.0000000
N2   N   0.888887885991569   0.111110609662459   0.875000000000000   1.0000000
B2   B   0.107300417960840   0.052185810508701   0.375000000000000   1.0000000
B2   B   0.620125745320525   0.564754175038436   0.375000000000000   1.0000000
B2   B   0.444885392547861   0.052185810508701   0.375000000000000   1.0000000
B2   B   0.945517366714465   0.555827028941316   0.375000000000000   1.0000000
B2   B   0.777777777777779   0.055555555555557   0.375000000000000   1.0000000
B2   B   0.111111111111114   0.722222222222221   0.875000000000000   1.0000000
B2   B   0.444454687806065   0.722253207445383   0.875000000000000   1.0000000
B2   B   0.277744994065408   0.222193011539150   0.875000000000000   1.0000000
B2   B   0.777798519639311   0.722253207445383   0.875000000000000   1.0000000
B2   B   0.611132371121559   0.222200962211777   0.875000000000000   1.0000000
B2   B   0.944422792801609   0.222208817416989   0.875000000000000   1.0000000
B2   B   0.277506304392020   0.723023671106485   0.375000000000000   1.0000000
B2   B   0.109005190470968   0.221169261902152   0.375000000000000   1.0000000
B2   B   0.444628429717911   0.213207588012811   0.375000000000000   1.0000000
B2   B   0.612164071431184   0.724328142862368   0.375000000000000   1.0000000
B2   B   0.945517366714465   0.723023671106485   0.375000000000000   1.0000000
B2   B   0.778032000337287   0.221593814102420   0.375000000000000   1.0000000
B2   B   0.111101042359511   0.888880019646647   0.875000000000000   1.0000000
B2   B   0.444455581126866   0.888894457230097   0.875000000000000   1.0000000
B2   B   0.277744994065408   0.388885315859586   0.875000000000000   1.0000000
B2   B   0.611140321794186   0.388885315859586   0.875000000000000   1.0000000
B2   B   0.777786024615380   0.888910540531719   0.875000000000000   1.0000000
B2   B   0.944438876103231   0.388877752206463   0.875000000000000   1.0000000
B2   B   0.107300417960840   0.388447940785468   0.375000000000000   1.0000000
B2   B   0.277506304392020   0.887815966618863   0.375000000000000   1.0000000
B2   B   0.611739519230909   0.889771519568189   0.375000000000000   1.0000000
B2   B   0.944210237152517   0.889123096180812   0.375000000000000   1.0000000
B2   B   0.781147522824635   0.388447940785468   0.375000000000000   1.0000000
B2   B   0.277764019540621   0.555569313792715   0.875000000000000   1.0000000
B2   B   0.111080125887960   0.055534813694025   0.875000000000000   1.0000000
B2   B   0.611140321794186   0.555588339267928   0.875000000000000   1.0000000
B2   B   0.444454687806065   0.055534813694025   0.875000000000000   1.0000000
B2   B   0.944453313686682   0.555554356046200   0.875000000000000   1.0000000
B2   B   0.110309662226851   0.555827028941316   0.375000000000000   1.0000000
B2   B   0.777777777777779   0.055555555555557   0.875000000000000   1.0000000
B2   B   0.275864277969300   0.051728555938599   0.375000000000000   1.0000000
B2   B   0.444628429717911   0.564754175038436   0.375000000000000   1.0000000
B2   B   0.781604777394736   0.557469055364036   0.375000000000000   1.0000000
B2   B   0.611739519230909   0.055301332996048   0.375000000000000   1.0000000
B2   B   0.444448017473742   0.555588339267928   0.875000000000000   1.0000000
B2   B   0.943561813765139   0.055301332996048   0.375000000000000   1.0000000
B2   B   0.277778977287143   0.722232290973825   0.875000000000000   1.0000000
B2   B   0.111068591090218   0.222200962211777   0.875000000000000   1.0000000
B2   B   0.444448017473742   0.222193011539150   0.875000000000000   1.0000000
B2   B   0.611132371121559   0.722264742243118   0.875000000000000   1.0000000
B2   B   0.944453313686682   0.722232290973825   0.875000000000000   1.0000000
B2   B   0.777786024615380   0.222208817416989   0.875000000000000   1.0000000
B2   B   0.111111111111114   0.722222222222221   0.375000000000000   1.0000000
B2   B   0.444885392547861   0.726032915372495   0.375000000000000   1.0000000
B2   B   0.268579158294900   0.213207588012811   0.375000000000000   1.0000000
B2   B   0.781147522824635   0.726032915372495   0.375000000000000   1.0000000
B2   B   0.612164071431184   0.221169261902152   0.375000000000000   1.0000000
B2   B   0.943561813765139   0.221593814102420   0.375000000000000   1.0000000
B2   B   0.111080125887960   0.388878645527264   0.875000000000000   1.0000000
B2   B   0.277778977287143   0.888880019646647   0.875000000000000   1.0000000
B2   B   0.611124515916346   0.888910540531719   0.875000000000000   1.0000000
B2   B   0.444444444444443   0.388888888888886   0.875000000000000   1.0000000
B2   B   0.944438876103231   0.888894457230097   0.875000000000000   1.0000000
B2   B   0.110309662226851   0.887815966618863   0.375000000000000   1.0000000
B2   B   0.777798519639311   0.388878645527264   0.875000000000000   1.0000000
B2   B   0.444912859028288   0.889123096180812   0.375000000000000   1.0000000
B2   B   0.268579158294900   0.388704903615417   0.375000000000000   1.0000000
B2   B   0.275864277969300   0.557469055364036   0.375000000000000   1.0000000
B2   B   0.620125745320525   0.388704903615417   0.375000000000000   1.0000000
B2   B   0.778032000337287   0.889771519568189   0.375000000000000   1.0000000
B2   B   0.944210237152517   0.388420474305041   0.375000000000000   1.0000000
B2   B   0.111101042359511   0.555554356046200   0.875000000000000   1.0000000
B2   B   0.277764019540621   0.055528039081242   0.875000000000000   1.0000000
B2   B   0.777805294252094   0.555569313792715   0.875000000000000   1.0000000
B2   B   0.611124515916346   0.055547308717956   0.875000000000000   1.0000000
B2   B   0.944422792801609   0.055547308717956   0.875000000000000   1.0000000
B2   B   0.055478438415936   0.111044018615727   0.124940688537406   1.0000000
B2   B   0.555615514183700   0.611231028367393   0.124504357636757   1.0000000
B2   B   0.388838423044222   0.110959024126058   0.124863804972228   1.0000000
B2   B   0.888991083096111   0.611162208214727   0.124960636929095   1.0000000
B2   B   0.722233432959349   0.111099900373987   0.124885243434862   1.0000000
B2   B   0.055569671938191   0.777763661395145   0.625093270068238   1.0000000
B2   B   0.388856466203499   0.777810930662970   0.625055770277003   1.0000000
B2   B   0.222102304965943   0.277717819149636   0.625495642363243   1.0000000
B2   B   0.722289314717609   0.777854894917400   0.625059311462594   1.0000000
B2   B   0.555615514183700   0.277717819149636   0.625495642363243   1.0000000
B2   B   0.888891668290290   0.277783336580580   0.625106227779397   1.0000000
B2   B   0.222193989456954   0.777763661395145   0.124906729931762   1.0000000
B2   B   0.055478438415936   0.277767753133545   0.124940688537406   1.0000000
B2   B   0.388820644123877   0.277641288247755   0.123217282556417   1.0000000
B2   B   0.555565580199791   0.777854894917400   0.124940688537406   1.0000000
B2   B   0.888954464459463   0.777810930662970   0.124944229722997   1.0000000
B2   B   0.722289314717609   0.277767753133545   0.124940688537406   1.0000000
B2   B   0.055522402670366   0.944378868873865   0.625055770277003   1.0000000
B2   B   0.388856466203499   0.944378868873865   0.625055770277003   1.0000000
B2   B   0.222120601081828   0.444494910289106   0.625136195027772   1.0000000
B2   B   0.555692045085581   0.444512689209451   0.626782717443583   1.0000000
B2   B   0.722233432959349   0.944466865918697   0.625114756565138   1.0000000
B2   B   0.888954464459463   0.444476867129829   0.625055770277003   1.0000000
B2   B   0.055522402670366   0.444476867129829   0.124944229722997   1.0000000
B2   B   0.222171125118609   0.944342250237218   0.124960636929095   1.0000000
B2   B   0.555549996752755   0.944441665043038   0.124893772220603   1.0000000
B2   B   0.388820644123877   0.444512689209451   0.123217282556417   1.0000000
B2   B   0.888891668290290   0.944441665043038   0.124893772220603   1.0000000
B2   B   0.722374309207278   0.444494910289106   0.124863804972228   1.0000000
B2   B   0.222171125118609   0.611162208214727   0.625039363070905   1.0000000
B2   B   0.055478438415936   0.111044018615727   0.625059311462594   1.0000000
B2   B   0.555615514183700   0.611231028367393   0.625495642363243   1.0000000
B2   B   0.388838423044222   0.110959024126058   0.625136195027772   1.0000000
B2   B   0.888991083096111   0.611162208214727   0.625039363070905   1.0000000
B2   B   0.055569671938191   0.611139343876382   0.124906729931762   1.0000000
B2   B   0.722233432959349   0.111099900373987   0.625114756565138   1.0000000
B2   B   0.222120601081828   0.110959024126058   0.124863804972228   1.0000000
B2   B   0.388838423044222   0.611212732251507   0.124863804972228   1.0000000
B2   B   0.722374309207278   0.611212732251507   0.124863804972228   1.0000000
B2   B   0.555565580199791   0.111044018615727   0.124940688537406   1.0000000
B2   B   0.388838423044222   0.611212732251507   0.625136195027772   1.0000000
B2   B   0.888866467414632   0.111099900373987   0.124885243434862   1.0000000
B2   B   0.222193989456954   0.777763661395145   0.625093270068238   1.0000000
B2   B   0.055478438415936   0.277767753133545   0.625059311462594   1.0000000
B2   B   0.388820644123877   0.277641288247755   0.626782717443583   1.0000000
B2   B   0.555565580199791   0.777854894917400   0.625059311462594   1.0000000
B2   B   0.888954464459463   0.777810930662970   0.625055770277003   1.0000000
B2   B   0.722289314717609   0.277767753133545   0.625059311462594   1.0000000
B2   B   0.055569671938191   0.777763661395145   0.124906729931762   1.0000000
B2   B   0.388856466203499   0.777810930662970   0.124944229722997   1.0000000
B2   B   0.222102304965943   0.277717819149636   0.124504357636757   1.0000000
B2   B   0.722289314717609   0.777854894917400   0.124940688537406   1.0000000
B2   B   0.555615514183700   0.277717819149636   0.124504357636757   1.0000000
B2   B   0.888891668290290   0.277783336580580   0.124893772220603   1.0000000
B2   B   0.055522402670366   0.444476867129829   0.625055770277003   1.0000000
B2   B   0.222171125118609   0.944342250237218   0.625039363070905   1.0000000
B2   B   0.555549996752755   0.944441665043038   0.625106227779397   1.0000000
B2   B   0.388820644123877   0.444512689209451   0.626782717443583   1.0000000
B2   B   0.888891668290290   0.944441665043038   0.625106227779397   1.0000000
B2   B   0.055522402670366   0.944378868873865   0.124944229722997   1.0000000
B2   B   0.722374309207278   0.444494910289106   0.625136195027772   1.0000000
B2   B   0.388856466203499   0.944378868873865   0.124944229722997   1.0000000
B2   B   0.222120601081828   0.444494910289106   0.124863804972228   1.0000000
B2   B   0.222171125118609   0.611162208214727   0.124960636929095   1.0000000
B2   B   0.555692045085581   0.444512689209451   0.123217282556417   1.0000000
B2   B   0.722233432959349   0.944466865918697   0.124885243434862   1.0000000
B2   B   0.888954464459463   0.444476867129829   0.124944229722997   1.0000000
B2   B   0.055569671938191   0.611139343876382   0.625093270068238   1.0000000
B2   B   0.222120601081828   0.110959024126058   0.625136195027772   1.0000000
B2   B   0.722374309207278   0.611212732251507   0.625136195027772   1.0000000
B2   B   0.555565580199791   0.111044018615727   0.625059311462594   1.0000000
B2   B   0.888866467414632   0.111099900373987   0.625114756565138   1.0000000


