data_1
_audit_creation_method   'vasp2cif'
_cell_length_a    17.52789999999977
_cell_length_b    17.52789999999977
_cell_length_c    15.0
_cell_angle_alpha    90.0
_cell_angle_beta    90.0
_cell_angle_gamma    119.99999999999916

_symmetry_space_group_name_H-M    'P 1'
loop_
_atom_site_label
_atom_site_type_symbol
_atom_site_fract_x
_atom_site_fract_y
_atom_site_fract_z
_atom_site_occupancy
B2   B   0.905391425495122   0.952888118299509   0.110997418340025   1.0000000
B2   B   0.904697004468222   0.095149465413538   0.111050959246871   1.0000000
B2   B   0.904533468984235   0.237849549963091   0.111047122917892   1.0000000
B2   B   0.904745144232826   0.380763889700077   0.110988402239517   1.0000000
B2   B   0.905615948251189   0.523942322555262   0.111019902900579   1.0000000
B2   B   0.906318950205650   0.667316578762094   0.111101617353956   1.0000000
B2   B   0.906236911341042   0.810468152784602   0.111054785702965   1.0000000
B2   B   0.047826416765538   0.952386599398192   0.110985170473390   1.0000000
B2   B   0.047132952826910   0.094617505670296   0.110992986835984   1.0000000
B2   B   0.046832518321705   0.237436596933805   0.110988118944653   1.0000000
B2   B   0.046854672921996   0.380727903101172   0.111004586280785   1.0000000
B2   B   0.047229326467051   0.524021817711929   0.111012925860647   1.0000000
B2   B   0.047924918226852   0.667072410248459   0.111036416204091   1.0000000
B2   B   0.048106309768439   0.809873435572014   0.110991776576092   1.0000000
B2   B   0.190230381879491   0.952152138376174   0.110977284496843   1.0000000
B2   B   0.189759990743527   0.094227878816138   0.111036085265028   1.0000000
B2   B   0.188698816741630   0.236088563244124   0.111003722052554   1.0000000
B2   B   0.188621974948525   0.380009012902119   0.111018176013664   1.0000000
B2   B   0.188657003001186   0.524201705264052   0.111077100389027   1.0000000
B2   B   0.189845980097403   0.667281573641049   0.111100816685421   1.0000000
B2   B   0.190297128847568   0.809888942604177   0.111006740152422   1.0000000
B2   B   0.332928085859918   0.952351005862897   0.111016795717578   1.0000000
B2   B   0.332602074313243   0.094126564788225   0.111066118936273   1.0000000
B2   B   0.331866005642367   0.235663193848034   0.111066764352889   1.0000000
B2   B   0.329286324503498   0.375629137326101   0.111052248014717   1.0000000
B2   B   0.329028400744672   0.525076473321081   0.111049538631618   1.0000000
B2   B   0.331884798258653   0.667927329705678   0.111116043847505   1.0000000
B2   B   0.332705723902889   0.810244964371159   0.111089399740973   1.0000000
B2   B   0.475804516824292   0.952789017066564   0.111000826380150   1.0000000
B2   B   0.475812475212948   0.094458904964135   0.111003456702657   1.0000000
B2   B   0.475307754792533   0.235454630767139   0.111069094938236   1.0000000
B2   B   0.475345759725749   0.376089132971595   0.111123530968195   1.0000000
B2   B   0.474330259121578   0.670407161655546   0.111038784415411   1.0000000
B2   B   0.475504417304648   0.811128470122839   0.111054804436446   1.0000000
B2   B   0.618967562107639   0.953248987481886   0.111008749251255   1.0000000
B2   B   0.618929628772161   0.095111303146768   0.110998961983919   1.0000000
B2   B   0.618993473265862   0.236968156505002   0.111000761215547   1.0000000
B2   B   0.618101968362486   0.378242015563972   0.111012443482625   1.0000000
B2   B   0.622991004187380   0.672095612798126   0.110984091807117   1.0000000
B2   B   0.619600007614244   0.811948639166913   0.110997228780362   1.0000000
B2   B   0.762396104376283   0.953182067334815   0.111004976166669   1.0000000
B2   B   0.761922320831508   0.095336843489250   0.111066624624371   1.0000000
B2   B   0.761994324413024   0.237820346797866   0.111052400475434   1.0000000
B2   B   0.762360395848019   0.380457731188415   0.110993569503192   1.0000000
B2   B   0.764502901642095   0.524928155202058   0.111012757605024   1.0000000
B2   B   0.765843386021401   0.668097030004668   0.111044132102516   1.0000000
B2   B   0.763871719486174   0.811594241342774   0.111002818309323   1.0000000
P2   P   0.478666717242556   0.520950391106394   0.111009076015006   1.0000000
N2   N   0.952851802593341   0.905256673131976   0.110991971211908   1.0000000
N2   N   0.952365972763894   0.047682291764017   0.110999370005142   1.0000000
N2   N   0.952157437712470   0.190259529934085   0.111024215588405   1.0000000
N2   N   0.952247837774349   0.333070131418708   0.110990661696764   1.0000000
N2   N   0.952600620846156   0.476020807067366   0.110964425450279   1.0000000
N2   N   0.953101244520741   0.619236004680022   0.111037033237197   1.0000000
N2   N   0.953126501038242   0.762388506142394   0.111044445775178   1.0000000
N2   N   0.095325306119970   0.904876889726310   0.110942166795034   1.0000000
N2   N   0.094984067362667   0.047411819286842   0.110990628665784   1.0000000
N2   N   0.094437516259210   0.189827631159471   0.110960715175832   1.0000000
N2   N   0.094591976783995   0.332979311451429   0.110974590545164   1.0000000
N2   N   0.094550969352568   0.476096105868510   0.111010297616355   1.0000000
N2   N   0.095186334905128   0.619204774495462   0.111033234862607   1.0000000
N2   N   0.095431466323353   0.762156080337326   0.110982556587003   1.0000000
N2   N   0.237946202985321   0.904836711988944   0.110967548035397   1.0000000
N2   N   0.237668366054019   0.047219931004205   0.111018677020373   1.0000000
N2   N   0.237204939408356   0.189624471100420   0.111025492407041   1.0000000
N2   N   0.236214522634776   0.331898549952249   0.111005043131210   1.0000000
N2   N   0.236199143395880   0.475983061804692   0.111046441401235   1.0000000
N2   N   0.237420576081004   0.619309762534512   0.111104678727019   1.0000000
N2   N   0.237855772813300   0.762216135990707   0.111069129996014   1.0000000
N2   N   0.380687625686604   0.904967220116437   0.111022805680064   1.0000000
N2   N   0.380623736492188   0.047248446945519   0.111007087804737   1.0000000
N2   N   0.380121306258239   0.189280521786200   0.111067212853803   1.0000000
N2   N   0.379722812485498   0.331708127272712   0.111070161393844   1.0000000
N2   N   0.374898072249713   0.473812911136675   0.110994852974005   1.0000000
N2   N   0.379928065233535   0.619610207708970   0.111058229912314   1.0000000
N2   N   0.380459438387503   0.762457830809737   0.111090822596485   1.0000000
N2   N   0.523599750537431   0.905350980684441   0.111000468273977   1.0000000
N2   N   0.523678493800765   0.047429828417833   0.110951617441689   1.0000000
N2   N   0.523543875960167   0.189250155510123   0.111000791444462   1.0000000
N2   N   0.522649602947578   0.330229775143177   0.111074569392693   1.0000000
N2   N   0.527625288486245   0.471478537463754   0.111155020551519   1.0000000
N2   N   0.525619623489457   0.624297202633928   0.110984888591980   1.0000000
N2   N   0.523511335309726   0.763408902743521   0.111013371417382   1.0000000
N2   N   0.666801834368353   0.905832321101634   0.110975552757548   1.0000000
N2   N   0.666658546187733   0.047769954044871   0.111014048225755   1.0000000
N2   N   0.666768932419645   0.189955864834207   0.111008662433252   1.0000000
N2   N   0.666972117415990   0.331821134926231   0.110983811441123   1.0000000
N2   N   0.672663923344865   0.470134681392048   0.110802771380719   1.0000000
N2   N   0.673425588556061   0.631434972180528   0.110896403104257   1.0000000
N2   N   0.668108674964482   0.765489797701263   0.110972241593373   1.0000000
N2   N   0.810260660176864   0.905870235368692   0.110973009422752   1.0000000
N2   N   0.809595790547368   0.047828779483672   0.111041622039017   1.0000000
N2   N   0.809552127027433   0.190276293200253   0.111057505769570   1.0000000
N2   N   0.809792517983630   0.332908169809381   0.110998421681221   1.0000000
N2   N   0.810824916318982   0.475788377416201   0.110991931020443   1.0000000
N2   N   0.811362191339710   0.619774005453867   0.111082347928276   1.0000000
N2   N   0.811004485927627   0.763610972490707   0.111034179927372   1.0000000


