data_1
_audit_creation_method   'vasp2cif'
_cell_length_a    17.52789999999977
_cell_length_b    17.52789999999977
_cell_length_c    15.0
_cell_angle_alpha    90.0
_cell_angle_beta    90.0
_cell_angle_gamma    119.99999999999916

_symmetry_space_group_name_H-M    'P 1'
loop_
_atom_site_label
_atom_site_type_symbol
_atom_site_fract_x
_atom_site_fract_y
_atom_site_fract_z
_atom_site_occupancy
As2   As   0.488984694325298   0.511016707591695   0.111582343925025   1.0000000
B2   B   0.906011832873226   0.952903202997463   0.111005396491174   1.0000000
B2   B   0.904878245845112   0.095123775350878   0.111019066989136   1.0000000
B2   B   0.904596677014276   0.237867528650111   0.111008358694289   1.0000000
B2   B   0.905046103914249   0.380818991478005   0.110966286222570   1.0000000
B2   B   0.906261787283107   0.523939911675445   0.111037770482960   1.0000000
B2   B   0.906857479179349   0.667156488124749   0.111099194889044   1.0000000
B2   B   0.906843182105283   0.810283747278312   0.111042373135639   1.0000000
B2   B   0.048240752865249   0.951761268330760   0.111016953271138   1.0000000
B2   B   0.047098818198524   0.093990188322761   0.111005396491174   1.0000000
B2   B   0.046679303123610   0.237116391761880   0.110979284667413   1.0000000
B2   B   0.046974899117032   0.380466113336441   0.110993980251124   1.0000000
B2   B   0.047974706011318   0.523629111450911   0.111000402005144   1.0000000
B2   B   0.048753614410744   0.666530162350864   0.111076791052631   1.0000000
B2   B   0.048794247950429   0.809266660799427   0.111078815915871   1.0000000
B2   B   0.190735360396568   0.951207773245593   0.111078815915871   1.0000000
B2   B   0.189718273917680   0.093158839090718   0.111042373135639   1.0000000
B2   B   0.187778685994740   0.234887630813526   0.110993433717981   1.0000000
B2   B   0.188318372636408   0.379484756096239   0.110991624964310   1.0000000
B2   B   0.189669191500444   0.523339823499052   0.111037204636385   1.0000000
B2   B   0.191020275960043   0.666297497232524   0.111041616881566   1.0000000
B2   B   0.191125140903422   0.808876880292609   0.111022039726840   1.0000000
B2   B   0.333471858846135   0.951248406785264   0.111076791052631   1.0000000
B2   B   0.332845533072229   0.093144542016656   0.111099194889044   1.0000000
B2   B   0.330875375242603   0.233859541438763   0.111034697982881   1.0000000
B2   B   0.326901120401209   0.375587466911694   0.111039246486165   1.0000000
B2   B   0.330947952711121   0.523080696563453   0.111003635317125   1.0000000
B2   B   0.333631597284444   0.666370423912561   0.111092421107607   1.0000000
B2   B   0.333704523964483   0.808981745235975   0.111041616881566   1.0000000
B2   B   0.476372909746060   0.952027315184658   0.111000402005144   1.0000000
B2   B   0.476062109521557   0.093740233912894   0.111037770482960   1.0000000
B2   B   0.475465713762904   0.234629072661601   0.110969993798819   1.0000000
B2   B   0.470441175710905   0.368365951555538   0.111241073478174   1.0000000
B2   B   0.476921324633550   0.669054068485865   0.111003635317125   1.0000000
B2   B   0.476662197697939   0.810332829695578   0.111037204636385   1.0000000
B2   B   0.619535907859537   0.953027122078949   0.110993980251124   1.0000000
B2   B   0.619183029717993   0.094955917281747   0.110966286222570   1.0000000
B2   B   0.619288738991891   0.237162815933261   0.110950404142592   1.0000000
B2   B   0.620215771324268   0.379786249871762   0.110956192442034   1.0000000
B2   B   0.631636069640465   0.529560845486073   0.111241073478174   1.0000000
B2   B   0.624414554284335   0.673100900795773   0.111039246486165   1.0000000
B2   B   0.620517265099792   0.811683648559608   0.110991624964310   1.0000000
B2   B   0.762885629434130   0.953322718072394   0.110979284667413   1.0000000
B2   B   0.762134492545887   0.095405344181713   0.111008358694289   1.0000000
B2   B   0.762118014541206   0.237884006654772   0.111007968819293   1.0000000
B2   B   0.762839205262742   0.380713282204075   0.110950404142592   1.0000000
B2   B   0.765372948534402   0.524536307434088   0.110969993798819   1.0000000
B2   B   0.766142479757221   0.669126645954404   0.111034697982881   1.0000000
B2   B   0.765114390382474   0.812223335201257   0.110993433717981   1.0000000
N2   N   0.953340067311230   0.904894187941712   0.110994109315239   1.0000000
N2   N   0.952542654974512   0.047458746943495   0.110997917324154   1.0000000
N2   N   0.951987201815623   0.190100579444555   0.110988741726429   1.0000000
N2   N   0.952083940323612   0.333003871977096   0.110963084863047   1.0000000
N2   N   0.952858216141508   0.475969430953020   0.110972457264625   1.0000000
N2   N   0.953430078255980   0.618955758925348   0.111089294088285   1.0000000
N2   N   0.953583341020091   0.761942433435846   0.111076137204956   1.0000000
N2   N   0.095812122086269   0.904189279831730   0.111029632419265   1.0000000
N2   N   0.095107213976288   0.046661334606783   0.110994109315239   1.0000000
N2   N   0.093787866287499   0.188783956973937   0.110963808221290   1.0000000
N2   N   0.093990438786532   0.332316622461749   0.110975810012235   1.0000000
N2   N   0.094897904948205   0.475646503638357   0.110986746354284   1.0000000
N2   N   0.095875406593596   0.618695946377264   0.111011472918019   1.0000000
N2   N   0.096036568939433   0.761497038380568   0.111039702362278   1.0000000
N2   N   0.238504363537441   0.903964832978572   0.111039702362278   1.0000000
N2   N   0.238058968482136   0.046418060897924   0.111076137204956   1.0000000
N2   N   0.236814025371868   0.188396407281766   0.110996592623277   1.0000000
N2   N   0.234054516526408   0.329568788372077   0.110972844501368   1.0000000
N2   N   0.236443242319625   0.474982499237023   0.110994725651246   1.0000000
N2   N   0.238490026403775   0.618505459275663   0.111047723768212   1.0000000
N2   N   0.238663731190834   0.761337670727178   0.111007047893667   1.0000000
N2   N   0.381305455540742   0.904125995324402   0.111011472918019   1.0000000
N2   N   0.381045642992652   0.046571323662048   0.111089294088285   1.0000000
N2   N   0.380595212320387   0.188852192984329   0.111015157109192   1.0000000
N2   N   0.378425137336984   0.330524225804169   0.111102375300933   1.0000000
N2   N   0.371582820610391   0.469176784305947   0.110951368137103   1.0000000
N2   N   0.381594068798102   0.618407333119901   0.111041160523914   1.0000000
N2   N   0.381495942642329   0.761511375514234   0.111047723768212   1.0000000
N2   N   0.524354898278620   0.905103496969809   0.110986746354284   1.0000000
N2   N   0.524031970963988   0.047143185776485   0.110972457264625   1.0000000
N2   N   0.523957417049377   0.189247747605877   0.110963621407994   1.0000000
N2   N   0.524313432125568   0.331441992484738   0.110953811304221   1.0000000
N2   N   0.530824617611041   0.628418581307621   0.110951368137103   1.0000000
N2   N   0.525018902679963   0.763558159598403   0.110994725651246   1.0000000
N2   N   0.667684779455238   0.906010963131453   0.110975810012235   1.0000000
N2   N   0.666997529939887   0.047917461594408   0.110963084863047   1.0000000
N2   N   0.666830142550890   0.190277863955328   0.110961148561334   1.0000000
N2   N   0.667055476677695   0.332945925239308   0.110922935908700   1.0000000
N2   N   0.668559409432238   0.475687969791453   0.110953811304221   1.0000000
N2   N   0.669477176112814   0.621576264581031   0.111102375300933   1.0000000
N2   N   0.670432613544922   0.765946885391607   0.110972844501368   1.0000000
N2   N   0.811217444944071   0.906213535630462   0.110963808221290   1.0000000
N2   N   0.809900822473445   0.048014200102406   0.110988741726429   1.0000000
N2   N   0.809534913194857   0.190466488723142   0.111015530152389   1.0000000
N2   N   0.809723537962659   0.333171259366112   0.110961148561334   1.0000000
N2   N   0.810753654312141   0.476043984867624   0.110963621407994   1.0000000
N2   N   0.811149208933698   0.619406189597583   0.111015157109192   1.0000000
N2   N   0.811604994636237   0.763187376546178   0.110996592623277   1.0000000


