data_1
_audit_creation_method   'vasp2cif'
_cell_length_a    14.93631414619966
_cell_length_b    14.936314146199727
_cell_length_c    13.341276283792837
_cell_angle_alpha    90.0
_cell_angle_beta    90.0
_cell_angle_gamma    119.99999999999984

_symmetry_space_group_name_H-M    'P 1'
loop_
_atom_site_label
_atom_site_type_symbol
_atom_site_fract_x
_atom_site_fract_y
_atom_site_fract_z
_atom_site_occupancy
Sn2   Sn   0.555555555555557   0.444444444444443   0.375000000000000   1.0000000
N2   N   0.111110208469087   0.055538899432548   0.125372962946099   1.0000000
N2   N   0.611137201313968   0.555607735961244   0.123154769984099   1.0000000
N2   N   0.444427922971979   0.055535971962645   0.125430049268091   1.0000000
N2   N   0.944464028037341   0.555572077028012   0.125430049268091   1.0000000
N2   N   0.777771504875366   0.055552419104336   0.125176394585965   1.0000000
N2   N   0.111123054661537   0.722228193997437   0.624762928140533   1.0000000
N2   N   0.444427922971985   0.722225284342683   0.624569950731910   1.0000000
N2   N   0.277763672060645   0.222204122294660   0.625035048242368   1.0000000
N2   N   0.777795877705350   0.722236327939356   0.625035048242368   1.0000000
N2   N   0.611107116900690   0.222204122294666   0.625035048242368   1.0000000
N2   N   0.944447580895665   0.222228495124660   0.624823605414036   1.0000000
N2   N   0.277771806002555   0.722228193997437   0.125237071859466   1.0000000
N2   N   0.111106155704365   0.222219744518845   0.125218295618472   1.0000000
N2   N   0.444441932380918   0.222217198095157   0.124683730238612   1.0000000
N2   N   0.611107116900690   0.722236327939356   0.124964951757607   1.0000000
N2   N   0.944464028037341   0.722225284342683   0.125430049268091   1.0000000
N2   N   0.777780255481149   0.222219744518845   0.125218295618472   1.0000000
N2   N   0.111120207907938   0.888879792092053   0.624638484350590   1.0000000
N2   N   0.444426250850792   0.888879792092066   0.624638484350590   1.0000000
N2   N   0.277763672060645   0.388892883099308   0.625035048242368   1.0000000
N2   N   0.611137201313985   0.388862798686051   0.626845230015903   1.0000000
N2   N   0.777780255481149   0.888893844295624   0.624781704381542   1.0000000
N2   N   0.944461100567447   0.388904642369857   0.624627037053930   1.0000000
N2   N   0.111110208469087   0.388904642369868   0.125372962946099   1.0000000
N2   N   0.277771806002555   0.888876945338438   0.125237071859466   1.0000000
N2   N   0.611095357630106   0.888889791530921   0.125372962946099   1.0000000
N2   N   0.444392264038738   0.388862798686039   0.123154769984101   1.0000000
N2   N   0.944461100567447   0.888889791530921   0.125372962946099   1.0000000
N2   N   0.777795877705350   0.388892883099308   0.124964951757607   1.0000000
N2   N   0.277774715657330   0.555572077028045   0.624569950731934   1.0000000
N2   N   0.111110208469086   0.055538899432546   0.624627037053930   1.0000000
N2   N   0.611137201313968   0.555607735961227   0.626845230015875   1.0000000
N2   N   0.444427922971979   0.055535971962645   0.624569950731934   1.0000000
N2   N   0.944464028037341   0.555572077028012   0.624569950731934   1.0000000
N2   N   0.111120207907938   0.555573749149218   0.125361515649410   1.0000000
N2   N   0.777771504875366   0.055552419104336   0.624823605414036   1.0000000
N2   N   0.277774715657330   0.055535971962646   0.125430049268091   1.0000000
N2   N   0.444441932380918   0.555558067619075   0.124683730238616   1.0000000
N2   N   0.777782801904821   0.555558067619088   0.124683730238612   1.0000000
N2   N   0.611095357630129   0.055538899432546   0.125372962946099   1.0000000
N2   N   0.444441932380922   0.555558067619088   0.625316269761407   1.0000000
N2   N   0.944447580895665   0.055552419104336   0.125176394585964   1.0000000
N2   N   0.277771806002560   0.722228193997437   0.624762928140519   1.0000000
N2   N   0.111106155704370   0.222219744518845   0.624781704381544   1.0000000
N2   N   0.444441932380922   0.222217198095156   0.625316269761407   1.0000000
N2   N   0.611107116900690   0.722236327939355   0.625035048242368   1.0000000
N2   N   0.944464028037341   0.722225284342683   0.624569950731910   1.0000000
N2   N   0.777780255481148   0.222219744518845   0.624781704381542   1.0000000
N2   N   0.111123054661537   0.722228193997431   0.125237071859466   1.0000000
N2   N   0.444427922971974   0.722225284342683   0.125430049268093   1.0000000
N2   N   0.277763672060645   0.222204122294659   0.124964951757608   1.0000000
N2   N   0.777795877705350   0.722236327939356   0.124964951757607   1.0000000
N2   N   0.611107116900690   0.222204122294660   0.124964951757607   1.0000000
N2   N   0.944447580895665   0.222228495124660   0.125176394585964   1.0000000
N2   N   0.111110208469086   0.388904642369857   0.624627037053930   1.0000000
N2   N   0.277771806002555   0.888876945338449   0.624762928140533   1.0000000
N2   N   0.611095357630129   0.888889791530921   0.624627037053930   1.0000000
N2   N   0.444392264038738   0.388862798686051   0.626845230015903   1.0000000
N2   N   0.944461100567447   0.888889791530921   0.624627037053930   1.0000000
N2   N   0.111120207907938   0.888879792092066   0.125361515649411   1.0000000
N2   N   0.777795877705343   0.388892883099308   0.625035048242368   1.0000000
N2   N   0.444426250850794   0.888879792092053   0.125361515649411   1.0000000
N2   N   0.277763672060634   0.388892883099308   0.124964951757608   1.0000000
N2   N   0.277774715657330   0.555572077028045   0.125430049268093   1.0000000
N2   N   0.611137201313968   0.388862798686039   0.123154769984099   1.0000000
N2   N   0.777780255481149   0.888893844295624   0.125218295618472   1.0000000
N2   N   0.944461100567447   0.388904642369868   0.125372962946099   1.0000000
N2   N   0.111120207907938   0.555573749149218   0.624638484350590   1.0000000
N2   N   0.277774715657337   0.055535971962646   0.624569950731910   1.0000000
N2   N   0.777782801904821   0.555558067619088   0.625316269761407   1.0000000
N2   N   0.611095357630129   0.055538899432546   0.624627037053930   1.0000000
N2   N   0.944447580895665   0.055552419104336   0.624823605414036   1.0000000
N2   N   0.054292745825288   0.110312795347244   0.375000000000000   1.0000000
N2   N   0.554554487562423   0.621257116294860   0.375000000000000   1.0000000
N2   N   0.387134095690433   0.107601524714190   0.375000000000000   1.0000000
N2   N   0.892398475285790   0.612865904309591   0.375000000000000   1.0000000
N2   N   0.722686716188620   0.110312795347244   0.375000000000000   1.0000000
N2   N   0.055550910356086   0.777780017067403   0.875000000000000   1.0000000
N2   N   0.388895773377966   0.777780017067403   0.875000000000000   1.0000000
N2   N   0.222216659438813   0.277774996386069   0.875000000000000   1.0000000
N2   N   0.722225003613903   0.777783340561174   0.875000000000000   1.0000000
N2   N   0.555555369345232   0.277773628740427   0.875000000000000   1.0000000
N2   N   0.888889738840285   0.277774991208229   0.875000000000000   1.0000000
N2   N   0.222222222222221   0.777777777777779   0.375000000000000   1.0000000
N2   N   0.054292745825287   0.277313283811368   0.375000000000000   1.0000000
N2   N   0.378742883705146   0.266630704600919   0.375000000000000   1.0000000
N2   N   0.554938681291832   0.782081281792715   0.375000000000000   1.0000000
N2   N   0.893809267167537   0.782081281792716   0.375000000000000   1.0000000
N2   N   0.724157687815699   0.275842312184285   0.375000000000000   1.0000000
N2   N   0.055551994445232   0.944448005554785   0.875000000000000   1.0000000
N2   N   0.388895773377966   0.944449089643905   0.875000000000000   1.0000000
N2   N   0.222216762890083   0.444439521493682   0.875000000000000   1.0000000
N2   N   0.555555555555557   0.444444444444443   0.875000000000000   1.0000000
N2   N   0.722225008791773   0.944448080965384   0.875000000000000   1.0000000
N2   N   0.888889425270278   0.444439521493682   0.875000000000000   1.0000000
N2   N   0.055758905914162   0.444851145161650   0.375000000000000   1.0000000
N2   N   0.221670882980432   0.943123790379968   0.375000000000000   1.0000000
N2   N   0.555148854838348   0.944241094085856   0.375000000000000   1.0000000
N2   N   0.378742883705128   0.445445512437566   0.375000000000000   1.0000000
N2   N   0.889687204652752   0.945707254174695   0.375000000000000   1.0000000
N2   N   0.733369295399083   0.445445512437559   0.375000000000000   1.0000000
N2   N   0.222219982932607   0.611104226622034   0.875000000000000   1.0000000
N2   N   0.055551919034631   0.111110261159730   0.875000000000000   1.0000000
N2   N   0.555555369345232   0.611115073938133   0.875000000000000   1.0000000
N2   N   0.388889486181723   0.111112305696781   0.875000000000000   1.0000000
N2   N   0.888887694303246   0.611110513818274   0.875000000000000   1.0000000
N2   N   0.056876209620022   0.611880425933793   0.375000000000000   1.0000000
N2   N   0.722225008791771   0.111110261159729   0.875000000000000   1.0000000
N2   N   0.217918718207304   0.106190732832451   0.375000000000000   1.0000000
N2   N   0.387134095690431   0.612865904309596   0.375000000000000   1.0000000
N2   N   0.733369295399110   0.621257116294870   0.375000000000000   1.0000000
N2   N   0.554938681291832   0.106190732832451   0.375000000000000   1.0000000
N2   N   0.388889486181706   0.611110513818274   0.875000000000000   1.0000000
N2   N   0.888888888888886   0.111111111111114   0.375000000000000   1.0000000
N2   N   0.222222222222221   0.777777777777779   0.875000000000000   1.0000000
N2   N   0.055551919034630   0.277774991208229   0.875000000000000   1.0000000
N2   N   0.388884926061830   0.277773628740427   0.875000000000000   1.0000000
N2   N   0.555560478506322   0.777783237109911   0.875000000000000   1.0000000
N2   N   0.888889425270262   0.777783237109911   0.875000000000000   1.0000000
N2   N   0.722225003613919   0.277774996386069   0.875000000000000   1.0000000
N2   N   0.056876209620024   0.778329117019546   0.375000000000000   1.0000000
N2   N   0.388119574066203   0.778329117019554   0.375000000000000   1.0000000
N2   N   0.218351291035238   0.275842312184293   0.375000000000000   1.0000000
N2   N   0.724157687815710   0.781648708964747   0.375000000000000   1.0000000
N2   N   0.554554487562460   0.266630704600910   0.375000000000000   1.0000000
N2   N   0.889687204652772   0.277313283811368   0.375000000000000   1.0000000
N2   N   0.055551994445233   0.444437322223798   0.875000000000000   1.0000000
N2   N   0.222219982932602   0.944449089643906   0.875000000000000   1.0000000
N2   N   0.555562677776214   0.944448005554785   0.875000000000000   1.0000000
N2   N   0.388884926061830   0.444444630654753   0.875000000000000   1.0000000
N2   N   0.888889738840285   0.944448080965384   0.875000000000000   1.0000000
N2   N   0.055758905914163   0.944241094085850   0.375000000000000   1.0000000
N2   N   0.722226371259606   0.444444630654753   0.875000000000000   1.0000000
N2   N   0.388119574066209   0.943123790379968   0.375000000000000   1.0000000
N2   N   0.217918718207302   0.445061318708183   0.375000000000000   1.0000000
N2   N   0.221670882980426   0.611880425933793   0.375000000000000   1.0000000
N2   N   0.722686716188632   0.945707254174720   0.375000000000000   1.0000000
N2   N   0.893809267167537   0.445061318708178   0.375000000000000   1.0000000
N2   N   0.055550910356087   0.611104226622034   0.875000000000000   1.0000000
N2   N   0.222216762890083   0.111110574729731   0.875000000000000   1.0000000
N2   N   0.722226371259605   0.611115073938133   0.875000000000000   1.0000000
N2   N   0.555560478506322   0.111110574729733   0.875000000000000   1.0000000
N2   N   0.888888888888886   0.111111111111114   0.875000000000000   1.0000000
B2   B   0.108067111230653   0.053399196849531   0.375000000000000   1.0000000
B2   B   0.631584504276013   0.596502341885356   0.375000000000000   1.0000000
B2   B   0.443696665231477   0.052498456490378   0.375000000000000   1.0000000
B2   B   0.947501543509620   0.556303334768545   0.375000000000000   1.0000000
B2   B   0.778569652737304   0.055951493035323   0.375000000000000   1.0000000
B2   B   0.111121931841199   0.722227632587249   0.875000000000000   1.0000000
B2   B   0.444442288758738   0.722263240188517   0.875000000000000   1.0000000
B2   B   0.277695266184493   0.222166209393126   0.875000000000000   1.0000000
B2   B   0.777833790606881   0.722304733815539   0.875000000000000   1.0000000
B2   B   0.611137609875317   0.222166209393129   0.875000000000000   1.0000000
B2   B   0.944434284893445   0.222201903120187   0.875000000000000   1.0000000
B2   B   0.277334762945066   0.722665237054947   0.375000000000000   1.0000000
B2   B   0.107556335144296   0.220444834238810   0.375000000000000   1.0000000
B2   B   0.441147223775321   0.215627780883965   0.375000000000000   1.0000000
B2   B   0.612989232223853   0.732581764566257   0.375000000000000   1.0000000
B2   B   0.947501543509660   0.724531542074432   0.375000000000000   1.0000000
B2   B   0.779555165761224   0.220444834238810   0.375000000000000   1.0000000
B2   B   0.111105986588126   0.888894013411862   0.875000000000000   1.0000000
B2   B   0.444454693490439   0.888894013411862   0.875000000000000   1.0000000
B2   B   0.277695266184492   0.388862390124686   0.875000000000000   1.0000000
B2   B   0.611138426141074   0.388861573858931   0.875000000000000   1.0000000
B2   B   0.777810560558885   0.888954454451031   0.875000000000000   1.0000000
B2   B   0.944462431484025   0.388862890921985   0.875000000000000   1.0000000
B2   B   0.108067111230652   0.388001247714442   0.375000000000000   1.0000000
B2   B   0.277334762945063   0.888002859223455   0.375000000000000   1.0000000
B2   B   0.611998752285549   0.891932888769346   0.375000000000000   1.0000000
B2   B   0.403497658114655   0.368415495723982   0.375000000000000   1.0000000
B2   B   0.946600803150465   0.891932888769346   0.375000000000000   1.0000000
B2   B   0.786259199009021   0.387010767776105   0.375000000000000   1.0000000
B2   B   0.277736759811499   0.555557711241256   0.875000000000000   1.0000000
B2   B   0.111067126104656   0.055537568515991   0.875000000000000   1.0000000
B2   B   0.611138426141074   0.555610185615488   0.875000000000000   1.0000000
B2   B   0.444442288758735   0.055512381903574   0.875000000000000   1.0000000
B2   B   0.944487618096393   0.555557711241256   0.875000000000000   1.0000000
B2   B   0.111232129232987   0.555797591799294   0.375000000000000   1.0000000
B2   B   0.777798096879822   0.055565715106576   0.875000000000000   1.0000000
B2   B   0.275468457925563   0.052498456490377   0.375000000000000   1.0000000
B2   B   0.441147223775311   0.558852776224676   0.375000000000000   1.0000000
B2   B   0.784372219116022   0.558852776224695   0.375000000000000   1.0000000
B2   B   0.611998752285549   0.053399196849530   0.375000000000000   1.0000000
B2   B   0.444411240793896   0.555588759206103   0.875000000000000   1.0000000
B2   B   0.944048506964661   0.055951493035324   0.375000000000000   1.0000000
B2   B   0.277772367412724   0.722227632587249   0.875000000000000   1.0000000
B2   B   0.111045545548938   0.222189439441128   0.875000000000000   1.0000000
B2   B   0.444411240793901   0.222155814921128   0.875000000000000   1.0000000
B2   B   0.611137609875317   0.722304733815539   0.875000000000000   1.0000000
B2   B   0.944487618096393   0.722263240188517   0.875000000000000   1.0000000
B2   B   0.777810560558885   0.222189439441127   0.875000000000000   1.0000000
B2   B   0.111997140776530   0.722665237054947   0.375000000000000   1.0000000
B2   B   0.443696665231472   0.724531542074439   0.375000000000000   1.0000000
B2   B   0.267418235433748   0.213740800990974   0.375000000000000   1.0000000
B2   B   0.786259199009034   0.732581764566244   0.375000000000000   1.0000000
B2   B   0.612989232223902   0.213740800990975   0.375000000000000   1.0000000
B2   B   0.944048506964661   0.221430347262684   0.375000000000000   1.0000000
B2   B   0.111067126104656   0.388862890921985   0.875000000000000   1.0000000
B2   B   0.277772367412731   0.888878068158790   0.875000000000000   1.0000000
B2   B   0.611137109078007   0.888932873895366   0.875000000000000   1.0000000
B2   B   0.444389814384531   0.388861573858920   0.875000000000000   1.0000000
B2   B   0.944462431484025   0.888932873895366   0.875000000000000   1.0000000
B2   B   0.111232129232984   0.888767870767023   0.375000000000000   1.0000000
B2   B   0.777833790606880   0.388862390124686   0.875000000000000   1.0000000
B2   B   0.444202408200716   0.888767870767028   0.375000000000000   1.0000000
B2   B   0.267418235433754   0.387010767776110   0.375000000000000   1.0000000
B2   B   0.275468457925572   0.556303334768547   0.375000000000000   1.0000000
B2   B   0.631584504276002   0.368415495723989   0.375000000000000   1.0000000
B2   B   0.779555165761206   0.892443664855731   0.375000000000000   1.0000000
B2   B   0.946600803150470   0.388001247714447   0.375000000000000   1.0000000
B2   B   0.111105986588126   0.555545306509579   0.875000000000000   1.0000000
B2   B   0.277736759811497   0.055512381903574   0.875000000000000   1.0000000
B2   B   0.777844185078863   0.555588759206103   0.875000000000000   1.0000000
B2   B   0.611137109078007   0.055537568515992   0.875000000000000   1.0000000
B2   B   0.944434284893445   0.055565715106576   0.875000000000000   1.0000000
B2   B   0.055483251737375   0.111051750680183   0.124819120596866   1.0000000
B2   B   0.555513294079199   0.611344651765624   0.123084901285147   1.0000000
B2   B   0.388749707651436   0.110832748636225   0.124580953914620   1.0000000
B2   B   0.889167251363773   0.611250292348563   0.124580953914620   1.0000000
B2   B   0.722235165609488   0.111051750680183   0.124819120596866   1.0000000
B2   B   0.055682702805518   0.777824354379647   0.625099243004277   1.0000000
B2   B   0.388808318240798   0.777824354379647   0.625099243004285   1.0000000
B2   B   0.222011550373378   0.277672441853352   0.625677191023749   1.0000000
B2   B   0.722327558146674   0.777988449626617   0.625677191023749   1.0000000
B2   B   0.555513294079205   0.277501975646943   0.626915098714889   1.0000000
B2   B   0.888948249319816   0.277764834390541   0.625180879403080   1.0000000
B2   B   0.222222222222221   0.777777777777779   0.124785152664674   1.0000000
B2   B   0.055483251737373   0.277764834390541   0.124819120596865   1.0000000
B2   B   0.388655348234416   0.277501975646943   0.123084901285147   1.0000000
B2   B   0.555503183963928   0.777929941097912   0.124707029967945   1.0000000
B2   B   0.889093423800608   0.777929941097912   0.124707029967944   1.0000000
B2   B   0.722327558146674   0.277672441853359   0.124322808976235   1.0000000
B2   B   0.055581932432942   0.944418067567062   0.625049294609086   1.0000000
B2   B   0.388808318240798   0.944317297194488   0.625099243004285   1.0000000
B2   B   0.222070058902112   0.444496816036053   0.625292970032054   1.0000000
B2   B   0.555555555555557   0.444444444444443   0.628420176020419   1.0000000
B2   B   0.722235165609488   0.944516748262637   0.625180879403080   1.0000000
B2   B   0.889093423800599   0.444496816036053   0.625292970032054   1.0000000
B2   B   0.055581932432942   0.444497198199213   0.124950705390913   1.0000000
B2   B   0.222175645620344   0.944317297194488   0.124900756995728   1.0000000
B2   B   0.555502801800773   0.944418067567062   0.124950705390913   1.0000000
B2   B   0.388655348234419   0.444486705920785   0.123084901285147   1.0000000
B2   B   0.888948249319816   0.944516748262637   0.124819120596866   1.0000000
B2   B   0.722498024353016   0.444486705920793   0.123084901285147   1.0000000
B2   B   0.222175645620344   0.611191681759209   0.625099243004285   1.0000000
B2   B   0.055483251737375   0.111051750680187   0.625180879403079   1.0000000
B2   B   0.555513294079205   0.611344651765624   0.626915098714889   1.0000000
B2   B   0.388749707651438   0.110832748636228   0.625419046085410   1.0000000
B2   B   0.889167251363778   0.611250292348563   0.625419046085409   1.0000000
B2   B   0.055682702805518   0.611191681759209   0.124900756995728   1.0000000
B2   B   0.722235165609488   0.111051750680183   0.625180879403079   1.0000000
B2   B   0.222070058902112   0.110906576199394   0.124707029967944   1.0000000
B2   B   0.388749707651439   0.611250292348564   0.124580953914620   1.0000000
B2   B   0.722498024353016   0.611344651765624   0.123084901285149   1.0000000
B2   B   0.555503183963927   0.110906576199394   0.124707029967944   1.0000000
B2   B   0.388749707651442   0.611250292348564   0.625419046085410   1.0000000
B2   B   0.888888888888886   0.111111111111114   0.124768421199189   1.0000000
B2   B   0.222222222222221   0.777777777777779   0.625214847335341   1.0000000
B2   B   0.055483251737375   0.277764834390541   0.625180879403079   1.0000000
B2   B   0.388655348234414   0.277501975646950   0.626915098714889   1.0000000
B2   B   0.555503183963943   0.777929941097912   0.625292970032054   1.0000000
B2   B   0.889093423800606   0.777929941097912   0.625292970032054   1.0000000
B2   B   0.722327558146674   0.277672441853359   0.625677191023749   1.0000000
B2   B   0.055682702805518   0.777824354379647   0.124900756995728   1.0000000
B2   B   0.388808318240807   0.777824354379647   0.124900756995728   1.0000000
B2   B   0.222011550373378   0.277672441853359   0.124322808976235   1.0000000
B2   B   0.722327558146674   0.777988449626617   0.124322808976235   1.0000000
B2   B   0.555513294079192   0.277501975646951   0.123084901285149   1.0000000
B2   B   0.888948249319816   0.277764834390541   0.124819120596866   1.0000000
B2   B   0.055581932432943   0.444497198199213   0.625049294609086   1.0000000
B2   B   0.222175645620344   0.944317297194488   0.625099243004277   1.0000000
B2   B   0.555502801800773   0.944418067567062   0.625049294609102   1.0000000
B2   B   0.388655348234421   0.444486705920793   0.626915098714889   1.0000000
B2   B   0.888948249319816   0.944516748262637   0.625180879403079   1.0000000
B2   B   0.055581932432942   0.944418067567062   0.124950705390913   1.0000000
B2   B   0.722498024353016   0.444486705920793   0.626915098714889   1.0000000
B2   B   0.388808318240797   0.944317297194488   0.124900756995728   1.0000000
B2   B   0.222070058902113   0.444496816036053   0.124707029967944   1.0000000
B2   B   0.222175645620341   0.611191681759165   0.124900756995728   1.0000000
B2   B   0.555555555555557   0.444444444444443   0.121579823979577   1.0000000
B2   B   0.722235165609488   0.944516748262637   0.124819120596866   1.0000000
B2   B   0.889093423800599   0.444496816036053   0.124707029967944   1.0000000
B2   B   0.055682702805518   0.611191681759209   0.625099243004285   1.0000000
B2   B   0.222070058902119   0.110906576199394   0.625292970032054   1.0000000
B2   B   0.722498024353016   0.611344651765622   0.626915098714889   1.0000000
B2   B   0.555503183963928   0.110906576199398   0.625292970032054   1.0000000
B2   B   0.888888888888886   0.111111111111114   0.625231578800792   1.0000000


