data_1
_audit_creation_method   'vasp2cif'
_cell_length_a    14.93631414619966
_cell_length_b    14.936314146199727
_cell_length_c    13.341276283792837
_cell_angle_alpha    90.0
_cell_angle_beta    90.0
_cell_angle_gamma    119.99999999999984

_symmetry_space_group_name_H-M    'P 1'
loop_
_atom_site_label
_atom_site_type_symbol
_atom_site_fract_x
_atom_site_fract_y
_atom_site_fract_z
_atom_site_occupancy
Ga2   Ga   0.489616733264610   0.411475033298969   0.375000000000000   1.0000000
N2   N   0.111138167064167   0.055575844959149   0.124881824774518   1.0000000
N2   N   0.611245742580360   0.555720647923145   0.122959872156725   1.0000000
N2   N   0.444502047623097   0.055573343633930   0.124870506547006   1.0000000
N2   N   0.944465747515987   0.555555385223665   0.124920361850108   1.0000000
N2   N   0.777834147809856   0.055583740571595   0.124854134762679   1.0000000
N2   N   0.111133663369280   0.722233498351304   0.625116147806728   1.0000000
N2   N   0.444502047623097   0.722262037322505   0.625129493452994   1.0000000
N2   N   0.277794977264122   0.222227446779019   0.625303438134921   1.0000000
N2   N   0.777832800691384   0.722290750518412   0.625351136103176   1.0000000
N2   N   0.611181555820384   0.222208489313009   0.625447470334918   1.0000000
N2   N   0.944484794871512   0.222233153305957   0.625111357055757   1.0000000
N2   N   0.277817102180046   0.722239062083065   0.124896537614469   1.0000000
N2   N   0.111137888641778   0.222235610987553   0.124857433063613   1.0000000
N2   N   0.444519990509348   0.222239083131664   0.124560030076403   1.0000000
N2   N   0.611181555820384   0.722306399840704   0.124552529665082   1.0000000
N2   N   0.944465747515987   0.722243695625659   0.124920361850108   1.0000000
N2   N   0.777834904664493   0.222218332062925   0.124874130005109   1.0000000
N2   N   0.111138875267442   0.888913002886468   0.625100558774492   1.0000000
N2   N   0.444495682272115   0.888914507802723   0.625113586095357   1.0000000
N2   N   0.277794977264122   0.388900863818432   0.625303438134921   1.0000000
N2   N   0.611245742580360   0.388858427990546   0.627040127843274   1.0000000
N2   N   0.777834904664493   0.888949905934897   0.625125869994891   1.0000000
N2   N   0.944480744625832   0.388887273646025   0.625052860368435   1.0000000
N2   N   0.111138167064167   0.388895655438346   0.124881824774518   1.0000000
N2   N   0.277817102180046   0.888911373430308   0.124896537614469   1.0000000
N2   N   0.611169753240015   0.888936267464053   0.124887596721443   1.0000000
N2   N   0.444446357257553   0.388889845295441   0.124706312079477   1.0000000
N2   N   0.944480744625832   0.888926804313136   0.124947139631564   1.0000000
N2   N   0.777832800691384   0.388875383506300   0.124648863896825   1.0000000
N2   N   0.277824760431868   0.555574087500450   0.625092857050969   1.0000000
N2   N   0.111138167064167   0.055575844959149   0.625118175225481   1.0000000
N2   N   0.611245742580360   0.555720647923145   0.627040127843274   1.0000000
N2   N   0.444502047623097   0.055573343633930   0.625129493452994   1.0000000
N2   N   0.944465747515987   0.555555385223665   0.625079638149890   1.0000000
N2   N   0.111138875267442   0.555559205714303   0.124899441225508   1.0000000
N2   N   0.777834147809856   0.055583740571595   0.625145865237321   1.0000000
N2   N   0.277824760431868   0.055584006264754   0.124907142949031   1.0000000
N2   N   0.444519990509348   0.555614240711021   0.124560030076403   1.0000000
N2   N   0.777817077809908   0.555575205571622   0.124416386862970   1.0000000
N2   N   0.611169753240015   0.055566819109290   0.124887596721443   1.0000000
N2   N   0.444519990509348   0.555614240711021   0.625439969923597   1.0000000
N2   N   0.944484794871512   0.055584974898890   0.124888642944242   1.0000000
N2   N   0.277817102180046   0.722239062083065   0.625103462385532   1.0000000
N2   N   0.111137888641778   0.222235610987553   0.625142566936387   1.0000000
N2   N   0.444519990509348   0.222239083131664   0.625439969923597   1.0000000
N2   N   0.611181555820384   0.722306399840704   0.625447470334918   1.0000000
N2   N   0.944465747515987   0.722243695625659   0.625079638149890   1.0000000
N2   N   0.777834904664493   0.222218332062925   0.625125869994891   1.0000000
N2   N   0.111133663369280   0.722233498351304   0.124883852193272   1.0000000
N2   N   0.444502047623097   0.722262037322505   0.124870506547006   1.0000000
N2   N   0.277794977264122   0.222227446779019   0.124696561865079   1.0000000
N2   N   0.777832800691384   0.722290750518412   0.124648863896825   1.0000000
N2   N   0.611181555820384   0.222208489313009   0.124552529665082   1.0000000
N2   N   0.944484794871512   0.222233153305957   0.124888642944242   1.0000000
N2   N   0.111138167064167   0.388895655438346   0.625118175225481   1.0000000
N2   N   0.277817102180046   0.888911373430308   0.625103462385532   1.0000000
N2   N   0.611169753240015   0.888936267464053   0.625112403278557   1.0000000
N2   N   0.444446357257553   0.388889845295441   0.625293687920523   1.0000000
N2   N   0.944480744625832   0.888926804313136   0.625052860368435   1.0000000
N2   N   0.111138875267442   0.888913002886468   0.124899441225508   1.0000000
N2   N   0.777832800691384   0.388875383506300   0.625351136103176   1.0000000
N2   N   0.444495682272115   0.888914507802723   0.124886413904643   1.0000000
N2   N   0.277794977264122   0.388900863818432   0.124696561865079   1.0000000
N2   N   0.277824760431868   0.555574087500450   0.124907142949031   1.0000000
N2   N   0.611245742580360   0.388858427990546   0.122959872156725   1.0000000
N2   N   0.777834904664493   0.888949905934897   0.124874130005109   1.0000000
N2   N   0.944480744625832   0.388887273646025   0.124947139631564   1.0000000
N2   N   0.111138875267442   0.555559205714303   0.625100558774492   1.0000000
N2   N   0.277824760431868   0.055584006264754   0.625092857050969   1.0000000
N2   N   0.777817077809908   0.555575205571622   0.625583613137032   1.0000000
N2   N   0.611169753240015   0.055566819109290   0.625112403278557   1.0000000
N2   N   0.944484794871512   0.055584974898890   0.625111357055757   1.0000000
N2   N   0.056772544633907   0.111851311492335   0.375000000000000   1.0000000
N2   N   0.554543576074346   0.617667198597849   0.375000000000000   1.0000000
N2   N   0.386830091182885   0.104818311982003   0.375000000000000   1.0000000
N2   N   0.885989743629101   0.609661538481221   0.375000000000000   1.0000000
N2   N   0.722688531466921   0.110678481722848   0.375000000000000   1.0000000
N2   N   0.055564965483749   0.777781840201438   0.875000000000000   1.0000000
N2   N   0.388887161722343   0.777780655574686   0.875000000000000   1.0000000
N2   N   0.222224984420778   0.277779158877056   0.875000000000000   1.0000000
N2   N   0.722224839444931   0.777776220475705   0.875000000000000   1.0000000
N2   N   0.555550231640454   0.277768899654268   0.875000000000000   1.0000000
N2   N   0.888893518308083   0.277784473026185   0.875000000000000   1.0000000
N2   N   0.219755429180131   0.776544381256734   0.375000000000000   1.0000000
N2   N   0.056772544633907   0.278254566474907   0.375000000000000   1.0000000
N2   N   0.389007149404504   0.269360782698849   0.375000000000000   1.0000000
N2   N   0.554884621850486   0.780650753726477   0.375000000000000   1.0000000
N2   N   0.887517903748950   0.777353318740479   0.375000000000000   1.0000000
N2   N   0.722357568057312   0.276182208493816   0.375000000000000   1.0000000
N2   N   0.055558840206778   0.944442167635316   0.875000000000000   1.0000000
N2   N   0.388887161722343   0.944439839480994   0.875000000000000   1.0000000
N2   N   0.222221791310177   0.444449250464468   0.875000000000000   1.0000000
N2   N   0.555551957823491   0.444442645578410   0.875000000000000   1.0000000
N2   N   0.722220444130302   0.944442346760195   0.875000000000000   1.0000000
N2   N   0.888900300694437   0.444452684189977   0.875000000000000   1.0000000
N2   N   0.054597330627025   0.444265141755989   0.375000000000000   1.0000000
N2   N   0.219903952666910   0.941965282599764   0.375000000000000   1.0000000
N2   N   0.554948016934197   0.944140675133763   0.375000000000000   1.0000000
N2   N   0.389007149404504   0.452979700038990   0.375000000000000   1.0000000
N2   N   0.889425023818625   0.945232898197658   0.375000000000000   1.0000000
N2   N   0.719922553759963   0.442373853776358   0.375000000000000   1.0000000
N2   N   0.222221836101381   0.611115318066530   0.875000000000000   1.0000000
N2   N   0.055556854624207   0.111109012485203   0.875000000000000   1.0000000
N2   N   0.555550231640454   0.611114665319522   0.875000000000000   1.0000000
N2   N   0.388885585495845   0.111101355411881   0.875000000000000   1.0000000
N2   N   0.888909080243301   0.611121206788322   0.875000000000000   1.0000000
N2   N   0.053101859579682   0.610172477920840   0.375000000000000   1.0000000
N2   N   0.722220444130302   0.111111430703442   0.875000000000000   1.0000000
N2   N   0.221645572345384   0.109428266391733   0.375000000000000   1.0000000
N2   N   0.386830091182885   0.615345112534224   0.375000000000000   1.0000000
N2   N   0.719922553759963   0.610882033316941   0.375000000000000   1.0000000
N2   N   0.554884621850486   0.107567201457344   0.375000000000000   1.0000000
N2   N   0.388885585495845   0.611117563417307   0.875000000000000   1.0000000
N2   N   0.889896286785257   0.111614810059300   0.375000000000000   1.0000000
N2   N   0.222224760943834   0.777779047138586   0.875000000000000   1.0000000
N2   N   0.055556854624207   0.277781175472340   0.875000000000000   1.0000000
N2   N   0.388891645655381   0.277774126944139   0.875000000000000   1.0000000
N2   N   0.555551451553016   0.777779048159648   0.875000000000000   1.0000000
N2   N   0.888900300694437   0.777780949837793   0.875000000000000   1.0000000
N2   N   0.722224839444931   0.277781952302560   0.875000000000000   1.0000000
N2   N   0.053101859579682   0.776262714992179   0.375000000000000   1.0000000
N2   N   0.387016511301055   0.778466541782471   0.375000000000000   1.0000000
N2   N   0.225023031027736   0.279178182180536   0.375000000000000   1.0000000
N2   N   0.722357568057312   0.779508692896832   0.375000000000000   1.0000000
N2   N   0.554543576074346   0.270209710809832   0.375000000000000   1.0000000
N2   N   0.889425023818625   0.277525458954302   0.375000000000000   1.0000000
N2   N   0.055558840206778   0.444450005904789   0.875000000000000   1.0000000
N2   N   0.222221836101381   0.944439851368185   0.875000000000000   1.0000000
N2   N   0.555550637248556   0.944441985290942   0.875000000000000   1.0000000
N2   N   0.388891645655381   0.444450852044578   0.875000000000000   1.0000000
N2   N   0.888893518308083   0.944442378615232   0.875000000000000   1.0000000
N2   N   0.054597330627025   0.943665522204364   0.375000000000000   1.0000000
N2   N   0.722237068046062   0.444454476856890   0.875000000000000   1.0000000
N2   N   0.387016511301055   0.941883302851923   0.375000000000000   1.0000000
N2   N   0.221645572345384   0.445550639286987   0.375000000000000   1.0000000
N2   N   0.219903952666910   0.611272003400483   0.375000000000000   1.0000000
N2   N   0.722688531466921   0.945343383077410   0.375000000000000   1.0000000
N2   N   0.887517903748950   0.443497918341806   0.375000000000000   1.0000000
N2   N   0.055564965483749   0.611116458615647   0.875000000000000   1.0000000
N2   N   0.222221791310177   0.111105874179044   0.875000000000000   1.0000000
N2   N   0.722237068046062   0.611115924522508   0.875000000000000   1.0000000
N2   N   0.555551451553016   0.111105736726706   0.875000000000000   1.0000000
N2   N   0.888890958443942   0.111112145888642   0.875000000000000   1.0000000
B2   B   0.111328057578164   0.055179029307529   0.375000000000000   1.0000000
B2   B   0.608677085809907   0.560902271282068   0.375000000000000   1.0000000
B2   B   0.443484457586742   0.052032383162479   0.375000000000000   1.0000000
B2   B   0.941911694104283   0.554524872926387   0.375000000000000   1.0000000
B2   B   0.778738924946174   0.056036129139754   0.375000000000000   1.0000000
B2   B   0.111111408441490   0.722222370887410   0.875000000000000   1.0000000
B2   B   0.444440965306994   0.722191646657033   0.875000000000000   1.0000000
B2   B   0.277831133961417   0.222260968453361   0.875000000000000   1.0000000
B2   B   0.777746784991090   0.722170710126798   0.875000000000000   1.0000000
B2   B   0.611085266833161   0.222256272692445   0.875000000000000   1.0000000
B2   B   0.944461601995807   0.222237775792812   0.875000000000000   1.0000000
B2   B   0.275851431586734   0.721956554056931   0.375000000000000   1.0000000
B2   B   0.114129981669324   0.223731657501326   0.375000000000000   1.0000000
B2   B   0.442534741006636   0.215045997062219   0.375000000000000   1.0000000
B2   B   0.610999207724232   0.726224651740981   0.375000000000000   1.0000000
B2   B   0.941911694104283   0.720720154511233   0.375000000000000   1.0000000
B2   B   0.778340073418584   0.221719863539347   0.375000000000000   1.0000000
B2   B   0.111121661110604   0.888897437526960   0.875000000000000   1.0000000
B2   B   0.444437093612612   0.888885213472971   0.875000000000000   1.0000000
B2   B   0.277831133961417   0.388903498841385   0.875000000000000   1.0000000
B2   B   0.611079403080562   0.388906107025443   0.875000000000000   1.0000000
B2   B   0.777763822338642   0.888853757517890   0.875000000000000   1.0000000
B2   B   0.944445917957974   0.388904583866264   0.875000000000000   1.0000000
B2   B   0.111328057578164   0.389482361603963   0.375000000000000   1.0000000
B2   B   0.275851431586734   0.887228210863131   0.375000000000000   1.0000000
B2   B   0.611330309524789   0.890300384525951   0.375000000000000   1.0000000
B2   B   0.943732004717451   0.888525377573297   0.375000000000000   1.0000000
B2   B   0.776224586054725   0.387586420998632   0.375000000000000   1.0000000
B2   B   0.277801014423981   0.555545852460970   0.875000000000000   1.0000000
B2   B   0.111144886475525   0.055576648650677   0.875000000000000   1.0000000
B2   B   0.611079403080562   0.555506629388448   0.875000000000000   1.0000000
B2   B   0.444440965306994   0.055582651983297   0.875000000000000   1.0000000
B2   B   0.944431564396358   0.555558199383561   0.875000000000000   1.0000000
B2   B   0.109148628581833   0.555191868402547   0.375000000000000   1.0000000
B2   B   0.777771961799958   0.055552647566647   0.875000000000000   1.0000000
B2   B   0.276223008959835   0.052984944261953   0.375000000000000   1.0000000
B2   B   0.442534741006636   0.560822077277753   0.375000000000000   1.0000000
B2   B   0.773969813858431   0.553651573595883   0.375000000000000   1.0000000
B2   B   0.611330309524789   0.054363258332167   0.375000000000000   1.0000000
B2   B   0.444457112364866   0.555527131185284   0.875000000000000   1.0000000
B2   B   0.945811178231925   0.056452072472354   0.375000000000000   1.0000000
B2   B   0.277783443107459   0.722215047060114   0.875000000000000   1.0000000
B2   B   0.111160854983671   0.222247094158500   0.875000000000000   1.0000000
B2   B   0.444457112364866   0.222263314512918   0.875000000000000   1.0000000
B2   B   0.611085266833161   0.722162327474044   0.875000000000000   1.0000000
B2   B   0.944431564396358   0.722206698346135   0.875000000000000   1.0000000
B2   B   0.777763822338642   0.222243398154081   0.875000000000000   1.0000000
B2   B   0.108715472070102   0.721024402701715   0.375000000000000   1.0000000
B2   B   0.443484457586742   0.724785407757599   0.375000000000000   1.0000000
B2   B   0.280747640009209   0.222131586183781   0.375000000000000   1.0000000
B2   B   0.776224586054725   0.721971498389422   0.375000000000000   1.0000000
B2   B   0.610999207724232   0.218107889316580   0.375000000000000   1.0000000
B2   B   0.945811178231925   0.222692439092907   0.375000000000000   1.0000000
B2   B   0.111144886475525   0.388901571158177   0.875000000000000   1.0000000
B2   B   0.277783443107459   0.888901729380672   0.875000000000000   1.0000000
B2   B   0.611094572963974   0.888862756655703   0.875000000000000   1.0000000
B2   B   0.444477605391584   0.388905469362456   0.875000000000000   1.0000000
B2   B   0.944445917957974   0.888874667425037   0.875000000000000   1.0000000
B2   B   0.109148628581833   0.887290093512615   0.375000000000000   1.0000000
B2   B   0.777746784991090   0.388909408197620   0.875000000000000   1.0000000
B2   B   0.443534353280761   0.888433843307045   0.375000000000000   1.0000000
B2   B   0.280747640009209   0.391949387158757   0.375000000000000   1.0000000
B2   B   0.276223008959835   0.556571398031217   0.375000000000000   1.0000000
B2   B   0.608677085809907   0.381108147861168   0.375000000000000   1.0000000
B2   B   0.778340073418584   0.889953543212563   0.375000000000000   1.0000000
B2   B   0.943732004717451   0.388539960477482   0.375000000000000   1.0000000
B2   B   0.111121661110604   0.555557556916973   0.875000000000000   1.0000000
B2   B   0.277801014423981   0.055588495296347   0.875000000000000   1.0000000
B2   B   0.777741884346774   0.555537608840055   0.875000000000000   1.0000000
B2   B   0.611094572963974   0.055565149641601   0.875000000000000   1.0000000
B2   B   0.944461601995807   0.055557159536331   0.875000000000000   1.0000000
B2   B   0.055656549029778   0.111191309009128   0.125121564799138   1.0000000
B2   B   0.555627176091009   0.611028444481369   0.124604106877115   1.0000000
B2   B   0.389012455413909   0.111305630291392   0.125177785019866   1.0000000
B2   B   0.888762954070079   0.611048143701712   0.125051320257884   1.0000000
B2   B   0.722263911654029   0.111139133947721   0.125054210329463   1.0000000
B2   B   0.055543442490643   0.777796087396086   0.624921900515568   1.0000000
B2   B   0.388971580043791   0.777769724687429   0.624916457352332   1.0000000
B2   B   0.222386821461007   0.277860077397172   0.624771440676550   1.0000000
B2   B   0.722207746629213   0.777746334931415   0.625037178391084   1.0000000
B2   B   0.555627176091009   0.277932064942973   0.625395893122885   1.0000000
B2   B   0.888919881069954   0.277776539718947   0.624909400634891   1.0000000
B2   B   0.222271186470682   0.777802259902010   0.125043457632588   1.0000000
B2   B   0.055656549029778   0.277798573353986   0.125121564799138   1.0000000
B2   B   0.388992420033961   0.277876419058788   0.125493046741595   1.0000000
B2   B   0.555619294288393   0.777744877424668   0.125053829670763   1.0000000
B2   B   0.888840997463447   0.777766800662029   0.125078257239531   1.0000000
B2   B   0.722207746629213   0.277794745031131   0.124962821608916   1.0000000
B2   B   0.055606450997057   0.944523618209600   0.624883811891032   1.0000000
B2   B   0.388971580043791   0.944535188689698   0.624916457352332   1.0000000
B2   B   0.222354225747688   0.444414668656442   0.624804382944157   1.0000000
B2   B   0.555695660682239   0.444514497007784   0.624441667377795   1.0000000
B2   B   0.722263911654029   0.944458111039644   0.624945789670537   1.0000000
B2   B   0.888840997463447   0.444407530134754   0.624921742760469   1.0000000
B2   B   0.055606450997057   0.444416166120785   0.125116188108968   1.0000000
B2   B   0.222303981327106   0.944567147248332   0.125113976360995   1.0000000
B2   B   0.555619928074529   0.944476630703928   0.125080092112483   1.0000000
B2   B   0.388992420033961   0.444449334308510   0.125493046741595   1.0000000
B2   B   0.888919881069954   0.944476674684342   0.125090599365109   1.0000000
B2   B   0.722083751602427   0.444385234485460   0.124416629967787   1.0000000
B2   B   0.222303981327106   0.611070167412109   0.624886023639005   1.0000000
B2   B   0.055656549029778   0.111191309009128   0.624878435200861   1.0000000
B2   B   0.555627176091009   0.611028444481369   0.625395893122885   1.0000000
B2   B   0.389012455413909   0.111305630291392   0.624822214980134   1.0000000
B2   B   0.888762954070079   0.611048143701712   0.624948679742117   1.0000000
B2   B   0.055543442490643   0.611080688427892   0.125078099484432   1.0000000
B2   B   0.722263911654029   0.111139133947721   0.624945789670537   1.0000000
B2   B   0.222354225747688   0.111272890424582   0.125195617055842   1.0000000
B2   B   0.389012455413909   0.611040158455861   0.125177785019866   1.0000000
B2   B   0.722083751602427   0.611031850450300   0.124416629967787   1.0000000
B2   B   0.555619294288393   0.111207750197061   0.125053829670763   1.0000000
B2   B   0.389012455413909   0.611040158455861   0.624822214980134   1.0000000
B2   B   0.888949129526811   0.111141231430076   0.125050423926975   1.0000000
B2   B   0.222271186470682   0.777802259902010   0.624956542367411   1.0000000
B2   B   0.055656549029778   0.277798573353986   0.624878435200861   1.0000000
B2   B   0.388992420033961   0.277876419058788   0.624506953258405   1.0000000
B2   B   0.555619294288393   0.777744877424668   0.624946170329237   1.0000000
B2   B   0.888840997463447   0.777766800662029   0.624921742760469   1.0000000
B2   B   0.722207746629213   0.277794745031131   0.625037178391084   1.0000000
B2   B   0.055543442490643   0.777796087396086   0.125078099484432   1.0000000
B2   B   0.388971580043791   0.777769724687429   0.125083542647667   1.0000000
B2   B   0.222386821461007   0.277860077397172   0.125228559323450   1.0000000
B2   B   0.722207746629213   0.777746334931415   0.124962821608916   1.0000000
B2   B   0.555627176091009   0.277932064942973   0.124604106877115   1.0000000
B2   B   0.888919881069954   0.277776539718947   0.125090599365109   1.0000000
B2   B   0.055606450997057   0.444416166120785   0.624883811891032   1.0000000
B2   B   0.222303981327106   0.944567147248332   0.624886023639005   1.0000000
B2   B   0.555619928074529   0.944476630703928   0.624919907887517   1.0000000
B2   B   0.388992420033961   0.444449334308510   0.624506953258405   1.0000000
B2   B   0.888919881069954   0.944476674684342   0.624909400634891   1.0000000
B2   B   0.055606450997057   0.944523618209600   0.125116188108968   1.0000000
B2   B   0.722083751602427   0.444385234485460   0.625583370032213   1.0000000
B2   B   0.388971580043791   0.944535188689698   0.125083542647667   1.0000000
B2   B   0.222354225747688   0.444414668656442   0.125195617055842   1.0000000
B2   B   0.222303981327106   0.611070167412109   0.125113976360995   1.0000000
B2   B   0.555695660682239   0.444514497007784   0.125558332622205   1.0000000
B2   B   0.722263911654029   0.944458111039644   0.125054210329463   1.0000000
B2   B   0.888840997463447   0.444407530134754   0.125078257239531   1.0000000
B2   B   0.055543442490643   0.611080688427892   0.624921900515568   1.0000000
B2   B   0.222354225747688   0.111272890424582   0.624804382944157   1.0000000
B2   B   0.722083751602427   0.611031850450300   0.625583370032213   1.0000000
B2   B   0.555619294288393   0.111207750197061   0.624946170329237   1.0000000
B2   B   0.888949129526811   0.111141231430076   0.624949576073025   1.0000000


