data_1
_audit_creation_method   'vasp2cif'
_cell_length_a    14.93631414619966
_cell_length_b    14.936314146199727
_cell_length_c    13.341276283792837
_cell_angle_alpha    90.0
_cell_angle_beta    90.0
_cell_angle_gamma    119.99999999999984

_symmetry_space_group_name_H-M    'P 1'
loop_
_atom_site_label
_atom_site_type_symbol
_atom_site_fract_x
_atom_site_fract_y
_atom_site_fract_z
_atom_site_occupancy
C2   C   0.594719573826389   0.378685652108881   0.375000000000000   1.0000000
C2   C   0.438793053885888   0.384667569145820   0.375000000000000   1.0000000
C2   C   0.547545293970507   0.436292833907477   0.375000000000000   1.0000000
N2   N   0.111087601622550   0.055539562330169   0.125187407038493   1.0000000
N2   N   0.611112989325475   0.555520357226499   0.125040379113823   1.0000000
N2   N   0.444430025158962   0.055557492426346   0.125297000751176   1.0000000
N2   N   0.944474207450810   0.555567260214166   0.125306620381101   1.0000000
N2   N   0.777747511380835   0.055553116839992   0.125172666795616   1.0000000
N2   N   0.111119760554501   0.722221917842763   0.624847326507652   1.0000000
N2   N   0.444430168200402   0.722195190928020   0.624810048998835   1.0000000
N2   N   0.277775166234834   0.222221572889976   0.624605293083082   1.0000000
N2   N   0.777763843813425   0.722178942157619   0.624724715454377   1.0000000
N2   N   0.611103025178963   0.222247830462646   0.624532121621679   1.0000000
N2   N   0.944426896948808   0.222230991799067   0.624824123814814   1.0000000
N2   N   0.277776728608963   0.722215716204741   0.125136451259789   1.0000000
N2   N   0.111092309159023   0.222214340428293   0.125203040949445   1.0000000
N2   N   0.444437675020215   0.222230357849968   0.125433673690554   1.0000000
N2   N   0.611092220518182   0.722178492692852   0.125218025691009   1.0000000
N2   N   0.944451017622174   0.722209021913099   0.125213711589501   1.0000000
N2   N   0.777763701324967   0.222246983645945   0.125308987257864   1.0000000
N2   N   0.111099533565404   0.888878838879926   0.624875854398472   1.0000000
N2   N   0.444427427022429   0.888879139432042   0.624859762193248   1.0000000
N2   N   0.277777649288276   0.388878146940423   0.624662207825446   1.0000000
N2   N   0.611116381737505   0.388869108184975   0.625445832061153   1.0000000
N2   N   0.777750863759778   0.888860738141573   0.624834924878872   1.0000000
N2   N   0.944459376620908   0.388912462481697   0.624775163245567   1.0000000
N2   N   0.111111465597959   0.388893444568344   0.125183736771274   1.0000000
N2   N   0.277771485672772   0.888883492366041   0.125141323474979   1.0000000
N2   N   0.611082025494219   0.888866517677743   0.125147687753987   1.0000000
N2   N   0.444427696602337   0.388870913922839   0.124788413398321   1.0000000
N2   N   0.944422019194683   0.888862912237396   0.125171487696758   1.0000000
N2   N   0.777802441676053   0.388920928564725   0.125266901622189   1.0000000
N2   N   0.277779984332708   0.555546093368399   0.624770151313792   1.0000000
N2   N   0.111087601622550   0.055539562330169   0.624812592961507   1.0000000
N2   N   0.611112989325475   0.555520357226499   0.624959620886176   1.0000000
N2   N   0.444430025158962   0.055557492426346   0.624702999248824   1.0000000
N2   N   0.944474207450810   0.555567260214166   0.624693379618899   1.0000000
N2   N   0.111124115191267   0.555561703057353   0.125169266258019   1.0000000
N2   N   0.777747511380835   0.055553116839992   0.624827333204384   1.0000000
N2   N   0.277759778792423   0.055546424316299   0.125245519538016   1.0000000
N2   N   0.444439060543612   0.555515748336486   0.125317099305506   1.0000000
N2   N   0.777799419671456   0.555537625852716   0.125224322390726   1.0000000
N2   N   0.611084052017976   0.055558907148470   0.125248477094995   1.0000000
N2   N   0.444439060543612   0.555515748336486   0.624682900694494   1.0000000
N2   N   0.944415666691470   0.055541015783854   0.125154450528123   1.0000000
N2   N   0.277776728608963   0.722215716204741   0.624863548740210   1.0000000
N2   N   0.111092309159023   0.222214340428293   0.624796959050556   1.0000000
N2   N   0.444437675020215   0.222230357849968   0.624566326309446   1.0000000
N2   N   0.611092220518182   0.722178492692852   0.624781974308991   1.0000000
N2   N   0.944451017622174   0.722209021913099   0.624786288410499   1.0000000
N2   N   0.777763701324967   0.222246983645945   0.624691012742136   1.0000000
N2   N   0.111119760554501   0.722221917842763   0.125152673492349   1.0000000
N2   N   0.444430168200402   0.722195190928020   0.125189951001165   1.0000000
N2   N   0.277775166234834   0.222221572889976   0.125394706916918   1.0000000
N2   N   0.777763843813425   0.722178942157619   0.125275284545623   1.0000000
N2   N   0.611103025178963   0.222247830462646   0.125467878378321   1.0000000
N2   N   0.944426896948808   0.222230991799067   0.125175876185187   1.0000000
N2   N   0.111111465597959   0.388893444568344   0.624816263228726   1.0000000
N2   N   0.277771485672772   0.888883492366041   0.624858676525022   1.0000000
N2   N   0.611082025494219   0.888866517677743   0.624852312246013   1.0000000
N2   N   0.444427696602337   0.388870913922839   0.625211586601680   1.0000000
N2   N   0.944422019194683   0.888862912237396   0.624828512303241   1.0000000
N2   N   0.111099533565404   0.888878838879926   0.125124145601529   1.0000000
N2   N   0.777802441676053   0.388920928564725   0.624733098377812   1.0000000
N2   N   0.444427427022429   0.888879139432042   0.125140237806751   1.0000000
N2   N   0.277777649288276   0.388878146940423   0.125337792174554   1.0000000
N2   N   0.277779984332708   0.555546093368399   0.125229848686208   1.0000000
N2   N   0.611116381737505   0.388869108184975   0.124554167938847   1.0000000
N2   N   0.777750863759778   0.888860738141573   0.125165075121128   1.0000000
N2   N   0.944459376620908   0.388912462481697   0.125224836754434   1.0000000
N2   N   0.111124115191267   0.555561703057353   0.624830733741980   1.0000000
N2   N   0.277759778792423   0.055546424316299   0.624754480461984   1.0000000
N2   N   0.777799419671456   0.555537625852716   0.624775677609274   1.0000000
N2   N   0.611084052017976   0.055558907148470   0.624751522905006   1.0000000
N2   N   0.944415666691470   0.055541015783854   0.624845549471878   1.0000000
N2   N   0.053677398761782   0.110326964218626   0.375000000000000   1.0000000
N2   N   0.557646104617695   0.609854218570075   0.375000000000000   1.0000000
N2   N   0.387103924328319   0.111473195231041   0.375000000000000   1.0000000
N2   N   0.891777880748332   0.610962967201749   0.375000000000000   1.0000000
N2   N   0.722552739913036   0.115366672478136   0.375000000000000   1.0000000
N2   N   0.055549688607000   0.777780161429787   0.875000000000000   1.0000000
N2   N   0.388887857266793   0.777781325671120   0.875000000000000   1.0000000
N2   N   0.222217418906408   0.277775993837994   0.875000000000000   1.0000000
N2   N   0.722216471981963   0.777778519342924   0.875000000000000   1.0000000
N2   N   0.555547485122625   0.277773717891619   0.875000000000000   1.0000000
N2   N   0.888881885669582   0.277776290013268   0.875000000000000   1.0000000
N2   N   0.224886684289399   0.779117398094934   0.375000000000000   1.0000000
N2   N   0.054161567375956   0.277923736237719   0.375000000000000   1.0000000
N2   N   0.385649085782669   0.279365156323789   0.375000000000000   1.0000000
N2   N   0.557205792247373   0.777784726828842   0.375000000000000   1.0000000
N2   N   0.889069513394345   0.776100919398410   0.375000000000000   1.0000000
N2   N   0.722972202651748   0.288357293814003   0.375000000000000   1.0000000
N2   N   0.055548149664723   0.944448210874144   0.875000000000000   1.0000000
N2   N   0.388888945041089   0.944448920045115   0.875000000000000   1.0000000
N2   N   0.222218068194346   0.444440845490221   0.875000000000000   1.0000000
N2   N   0.555548059202861   0.444446458713151   0.875000000000000   1.0000000
N2   N   0.722217057088474   0.944444708133348   0.875000000000000   1.0000000
N2   N   0.888883383894321   0.444443274523930   0.875000000000000   1.0000000
N2   N   0.056899789427601   0.445451106472813   0.375000000000000   1.0000000
N2   N   0.222336001591929   0.944556382902619   0.375000000000000   1.0000000
N2   N   0.557000594603796   0.946403115636109   0.375000000000000   1.0000000
N2   N   0.388706454445361   0.439671449573542   0.375000000000000   1.0000000
N2   N   0.888188054074890   0.943584222315312   0.375000000000000   1.0000000
N2   N   0.222215858846149   0.611107935320935   0.875000000000000   1.0000000
N2   N   0.055547528101583   0.111108594395916   0.875000000000000   1.0000000
N2   N   0.555549450303401   0.611108900014534   0.875000000000000   1.0000000
N2   N   0.388886124189464   0.111111849902196   0.875000000000000   1.0000000
N2   N   0.888883364057132   0.611110737219953   0.875000000000000   1.0000000
N2   N   0.059643992201049   0.613000888065677   0.375000000000000   1.0000000
N2   N   0.722214882667015   0.111108931412951   0.875000000000000   1.0000000
N2   N   0.220643048681008   0.110717274438708   0.375000000000000   1.0000000
N2   N   0.391114971282635   0.609495459115070   0.375000000000000   1.0000000
N2   N   0.723958119483553   0.602993187103482   0.375000000000000   1.0000000
N2   N   0.556634694171581   0.114910062825430   0.375000000000000   1.0000000
N2   N   0.388887522264555   0.611109567733187   0.875000000000000   1.0000000
N2   N   0.887915987340597   0.111749201321454   0.375000000000000   1.0000000
N2   N   0.222217881288672   0.777779124591264   0.875000000000000   1.0000000
N2   N   0.055547953720533   0.277773437869979   0.875000000000000   1.0000000
N2   N   0.388885108725887   0.277778547332445   0.875000000000000   1.0000000
N2   N   0.555552290490436   0.777778652932734   0.875000000000000   1.0000000
N2   N   0.888883118108440   0.777781031163736   0.875000000000000   1.0000000
N2   N   0.722214021544517   0.277774668637449   0.875000000000000   1.0000000
N2   N   0.056959402313600   0.778025775985474   0.375000000000000   1.0000000
N2   N   0.391242509516526   0.778367429265787   0.375000000000000   1.0000000
N2   N   0.219312770235015   0.276520953318550   0.375000000000000   1.0000000
N2   N   0.723129343052304   0.774965804277266   0.375000000000000   1.0000000
N2   N   0.550673624737485   0.277156812663482   0.375000000000000   1.0000000
N2   N   0.888324170397475   0.279964776417784   0.375000000000000   1.0000000
N2   N   0.055547826481687   0.444441128052846   0.875000000000000   1.0000000
N2   N   0.222218217830633   0.944448228610679   0.875000000000000   1.0000000
N2   N   0.555552047002664   0.944447599991916   0.875000000000000   1.0000000
N2   N   0.388886217114656   0.444445654875590   0.875000000000000   1.0000000
N2   N   0.888884360002804   0.944446053517188   0.875000000000000   1.0000000
N2   N   0.054810240533556   0.943730087797253   0.375000000000000   1.0000000
N2   N   0.722216017990027   0.444444525832341   0.875000000000000   1.0000000
N2   N   0.390579014563828   0.946330006933011   0.375000000000000   1.0000000
N2   N   0.223103436906463   0.444076471924997   0.375000000000000   1.0000000
N2   N   0.225105760657087   0.611684667632646   0.375000000000000   1.0000000
N2   N   0.722640007796529   0.944994140161148   0.375000000000000   1.0000000
N2   N   0.891298297165275   0.447708388763228   0.375000000000000   1.0000000
N2   N   0.055546971152350   0.611107271902446   0.875000000000000   1.0000000
N2   N   0.222215651265051   0.111112668608025   0.875000000000000   1.0000000
N2   N   0.722213730459156   0.611110972865367   0.875000000000000   1.0000000
N2   N   0.555550897305370   0.111110396720809   0.875000000000000   1.0000000
N2   N   0.888882701252140   0.111108081532141   0.875000000000000   1.0000000
B2   B   0.108950766592354   0.054511433438805   0.375000000000000   1.0000000
B2   B   0.612905053258792   0.553962954986879   0.375000000000000   1.0000000
B2   B   0.444988293211476   0.057278880316827   0.375000000000000   1.0000000
B2   B   0.949889767283868   0.558418033840772   0.375000000000000   1.0000000
B2   B   0.777114871331945   0.057173404583666   0.375000000000000   1.0000000
B2   B   0.111102962540248   0.722222835865593   0.875000000000000   1.0000000
B2   B   0.444450575473279   0.722241653404800   0.875000000000000   1.0000000
B2   B   0.277748863419245   0.222204653306943   0.875000000000000   1.0000000
B2   B   0.777782717452480   0.722240659885939   0.875000000000000   1.0000000
B2   B   0.611120913529788   0.222208746472823   0.875000000000000   1.0000000
B2   B   0.944423774601012   0.222207353292162   0.875000000000000   1.0000000
B2   B   0.280246896126296   0.723104968775235   0.375000000000000   1.0000000
B2   B   0.107769326108935   0.220973530090613   0.375000000000000   1.0000000
B2   B   0.439336380330789   0.220573018935094   0.375000000000000   1.0000000
B2   B   0.612576555877194   0.721805582751225   0.375000000000000   1.0000000
B2   B   0.945963306964594   0.722283740148889   0.375000000000000   1.0000000
B2   B   0.777570579568366   0.227946940855615   0.375000000000000   1.0000000
B2   B   0.111091107967778   0.888879150631365   0.875000000000000   1.0000000
B2   B   0.444446983277002   0.888885452544230   0.875000000000000   1.0000000
B2   B   0.277758616486587   0.388893198199501   0.875000000000000   1.0000000
B2   B   0.611124173661579   0.388905319314825   0.875000000000000   1.0000000
B2   B   0.777774316782631   0.888894623270591   0.875000000000000   1.0000000
B2   B   0.944438884733209   0.388886207454976   0.875000000000000   1.0000000
B2   B   0.111221319262893   0.388995292165851   0.375000000000000   1.0000000
B2   B   0.279305757699440   0.890043758121056   0.375000000000000   1.0000000
B2   B   0.611943613051626   0.889622583330050   0.375000000000000   1.0000000
B2   B   0.943588134995310   0.887713335784701   0.375000000000000   1.0000000
B2   B   0.781677207995326   0.402893247535299   0.375000000000000   1.0000000
B2   B   0.277770354313573   0.555568756354612   0.875000000000000   1.0000000
B2   B   0.111075203860696   0.055534274239249   0.875000000000000   1.0000000
B2   B   0.611126704561176   0.555582494124012   0.875000000000000   1.0000000
B2   B   0.444442035806668   0.055532643872335   0.875000000000000   1.0000000
B2   B   0.944445639827053   0.555563244686528   0.875000000000000   1.0000000
B2   B   0.114117108808243   0.556584183779231   0.375000000000000   1.0000000
B2   B   0.777771441266549   0.055544467218131   0.875000000000000   1.0000000
B2   B   0.275902415781212   0.054720562555081   0.375000000000000   1.0000000
B2   B   0.447166129917182   0.554549227094288   0.375000000000000   1.0000000
B2   B   0.782205113447520   0.547207888664326   0.375000000000000   1.0000000
B2   B   0.611855990213404   0.057948941671587   0.375000000000000   1.0000000
B2   B   0.444452375967635   0.555584998621887   0.875000000000000   1.0000000
B2   B   0.942547442383428   0.054855818747316   0.375000000000000   1.0000000
B2   B   0.277773936446954   0.722227346383484   0.875000000000000   1.0000000
B2   B   0.111073565730278   0.222203374305670   0.875000000000000   1.0000000
B2   B   0.444440673544894   0.222206636675027   0.875000000000000   1.0000000
B2   B   0.611121259178413   0.722246918787263   0.875000000000000   1.0000000
B2   B   0.944441455933388   0.722231049312578   0.875000000000000   1.0000000
B2   B   0.777779484038738   0.222209705989663   0.875000000000000   1.0000000
B2   B   0.114037697139937   0.723898526763906   0.375000000000000   1.0000000
B2   B   0.446370962139210   0.721944117879262   0.375000000000000   1.0000000
B2   B   0.272766760699497   0.220536389746168   0.375000000000000   1.0000000
B2   B   0.778307038204009   0.717408715509204   0.375000000000000   1.0000000
B2   B   0.612546566764919   0.225665627200298   0.375000000000000   1.0000000
B2   B   0.942882933326026   0.222855626570332   0.375000000000000   1.0000000
B2   B   0.111087987079258   0.388883513095108   0.875000000000000   1.0000000
B2   B   0.277768141312476   0.888876830596132   0.875000000000000   1.0000000
B2   B   0.611116010646287   0.888894776640392   0.875000000000000   1.0000000
B2   B   0.444453450952493   0.388908046987264   0.875000000000000   1.0000000
B2   B   0.944428536111433   0.888886875635041   0.875000000000000   1.0000000
B2   B   0.111142704959735   0.888767066588608   0.375000000000000   1.0000000
B2   B   0.777790304943628   0.388893645950801   0.875000000000000   1.0000000
B2   B   0.446051869801494   0.890030675118519   0.375000000000000   1.0000000
B2   B   0.275489882537269   0.386543652038192   0.375000000000000   1.0000000
B2   B   0.279784600078135   0.555486252038091   0.375000000000000   1.0000000
B2   B   0.777432284986807   0.887488222644324   0.375000000000000   1.0000000
B2   B   0.945625694541632   0.390626171459120   0.375000000000000   1.0000000
B2   B   0.111101842171652   0.555558111807190   0.875000000000000   1.0000000
B2   B   0.277753842901851   0.055529929860928   0.875000000000000   1.0000000
B2   B   0.777790760952431   0.555577982396545   0.875000000000000   1.0000000
B2   B   0.611116611066501   0.055540646333801   0.875000000000000   1.0000000
B2   B   0.944419444522089   0.055540845509465   0.875000000000000   1.0000000
B2   B   0.055462260270572   0.111044635112625   0.124890541947183   1.0000000
B2   B   0.555616988966865   0.611156737980342   0.124814212937481   1.0000000
B2   B   0.388817966686050   0.110987026637598   0.124873030902136   1.0000000
B2   B   0.888954124978260   0.611142863066556   0.124991773212026   1.0000000
B2   B   0.722222944641513   0.111097458873217   0.124989885504421   1.0000000
B2   B   0.055551510307396   0.777750803689127   0.625065422588707   1.0000000
B2   B   0.388864714484920   0.777763820125633   0.625076971901847   1.0000000
B2   B   0.222104384277753   0.277742565167814   0.625203955752186   1.0000000
B2   B   0.722240768910988   0.777778531218710   0.625014391038519   1.0000000
B2   B   0.555635887312565   0.277832719838323   0.625592488426113   1.0000000
B2   B   0.888905979330708   0.277806762624320   0.625035912384748   1.0000000
B2   B   0.222205890755624   0.777748564810560   0.124913354103288   1.0000000
B2   B   0.055494143525279   0.277781536645567   0.124891377584189   1.0000000
B2   B   0.388856964697684   0.277779600504345   0.124380395275910   1.0000000
B2   B   0.555552274551889   0.777781909923502   0.124943021446744   1.0000000
B2   B   0.888895529335521   0.777760702410534   0.124989170175132   1.0000000
B2   B   0.722307366532152   0.277825347108774   0.124976892564939   1.0000000
B2   B   0.055492385003673   0.944365653285595   0.625090026850348   1.0000000
B2   B   0.388841606995877   0.944353837286845   0.625083326509113   1.0000000
B2   B   0.222159601181780   0.444486574910140   0.625105438897794   1.0000000
B2   B   0.555639799935291   0.444493393775134   0.625582131058240   1.0000000
B2   B   0.722201771398491   0.944421740943167   0.625045793367680   1.0000000
B2   B   0.888969601657847   0.444502254695793   0.625016864223592   1.0000000
B2   B   0.055559502370541   0.444485964740132   0.124930942070884   1.0000000
B2   B   0.222152942972816   0.944337273396290   0.124889406065228   1.0000000
B2   B   0.555529617836416   0.944397345415608   0.124937862642709   1.0000000
B2   B   0.388880343774787   0.444473613473446   0.124452098965131   1.0000000
B2   B   0.888848372706452   0.944404127407024   0.124946271127598   1.0000000
B2   B   0.722290943044536   0.444493611933881   0.124723247372716   1.0000000
B2   B   0.222209594228485   0.611143852479646   0.625076415955833   1.0000000
B2   B   0.055462260270572   0.111044635112625   0.625109458052816   1.0000000
B2   B   0.555616988966865   0.611156737980342   0.625185787062519   1.0000000
B2   B   0.388817966686050   0.110987026637598   0.625126969097865   1.0000000
B2   B   0.888954124978260   0.611142863066556   0.625008226787974   1.0000000
B2   B   0.055598732307980   0.611143948185478   0.124952222964154   1.0000000
B2   B   0.722222944641513   0.111097458873217   0.625010114495580   1.0000000
B2   B   0.222106739773086   0.110985037036446   0.124869572444821   1.0000000
B2   B   0.388870671566323   0.611157359045432   0.124925282809801   1.0000000
B2   B   0.722284066828097   0.611134526930458   0.124925960437098   1.0000000
B2   B   0.555545213490465   0.111040877823858   0.124957975359844   1.0000000
B2   B   0.388870671566323   0.611157359045432   0.625074717190198   1.0000000
B2   B   0.888846744540429   0.111089242047954   0.124935526791374   1.0000000
B2   B   0.222205890755624   0.777748564810560   0.625086645896711   1.0000000
B2   B   0.055494143525279   0.277781536645567   0.625108622415812   1.0000000
B2   B   0.388856964697684   0.277779600504345   0.625619604724090   1.0000000
B2   B   0.555552274551889   0.777781909923502   0.625056978553256   1.0000000
B2   B   0.888895529335521   0.777760702410534   0.625010829824867   1.0000000
B2   B   0.722307366532152   0.277825347108774   0.625023107435061   1.0000000
B2   B   0.055551510307396   0.777750803689127   0.124934577411293   1.0000000
B2   B   0.388864714484920   0.777763820125633   0.124923028098153   1.0000000
B2   B   0.222104384277753   0.277742565167814   0.124796044247814   1.0000000
B2   B   0.722240768910988   0.777778531218710   0.124985608961482   1.0000000
B2   B   0.555635887312565   0.277832719838323   0.124407511573887   1.0000000
B2   B   0.888905979330708   0.277806762624320   0.124964087615251   1.0000000
B2   B   0.055559502370541   0.444485964740132   0.625069057929115   1.0000000
B2   B   0.222152942972816   0.944337273396290   0.625110593934772   1.0000000
B2   B   0.555529617836416   0.944397345415608   0.625062137357290   1.0000000
B2   B   0.388880343774787   0.444473613473446   0.625547901034869   1.0000000
B2   B   0.888848372706452   0.944404127407024   0.625053728872401   1.0000000
B2   B   0.055492385003673   0.944365653285595   0.124909973149651   1.0000000
B2   B   0.722290943044536   0.444493611933881   0.625276752627284   1.0000000
B2   B   0.388841606995877   0.944353837286845   0.124916673490887   1.0000000
B2   B   0.222159601181780   0.444486574910140   0.124894561102206   1.0000000
B2   B   0.222209594228485   0.611143852479646   0.124923584044167   1.0000000
B2   B   0.555639799935291   0.444493393775134   0.124417868941760   1.0000000
B2   B   0.722201771398491   0.944421740943167   0.124954206632320   1.0000000
B2   B   0.888969601657847   0.444502254695793   0.124983135776409   1.0000000
B2   B   0.055598732307980   0.611143948185478   0.625047777035846   1.0000000
B2   B   0.222106739773086   0.110985037036446   0.625130427555179   1.0000000
B2   B   0.722284066828097   0.611134526930458   0.625074039562901   1.0000000
B2   B   0.555545213490465   0.111040877823858   0.625042024640156   1.0000000
B2   B   0.888846744540429   0.111089242047954   0.625064473208626   1.0000000


