data_1
_audit_creation_method   'vasp2cif'
_cell_length_a    17.52789999999977
_cell_length_b    17.52789999999977
_cell_length_c    15.0
_cell_angle_alpha    90.0
_cell_angle_beta    90.0
_cell_angle_gamma    119.99999999999916

_symmetry_space_group_name_H-M    'P 1'
loop_
_atom_site_label
_atom_site_type_symbol
_atom_site_fract_x
_atom_site_fract_y
_atom_site_fract_z
_atom_site_occupancy
B2   B   0.905239246813854   0.952690454192196   0.111018041317412   1.0000000
B2   B   0.904772744328391   0.095229276867604   0.111025822048874   1.0000000
B2   B   0.904639252538446   0.238033973114727   0.111057864315865   1.0000000
B2   B   0.904772744328391   0.380972161151787   0.111025822048874   1.0000000
B2   B   0.905239246813854   0.523979197869662   0.111018041317412   1.0000000
B2   B   0.905564308620443   0.667024402496556   0.111069229547299   1.0000000
B2   B   0.905564308620443   0.809970311371889   0.111069229547299   1.0000000
B2   B   0.047729749947751   0.952272271248253   0.111027038461431   1.0000000
B2   B   0.047311567003809   0.094762774382143   0.111018041317412   1.0000000
B2   B   0.047095767337381   0.237671706834229   0.111025111737877   1.0000000
B2   B   0.047095767337381   0.380854465750152   0.111025111737877   1.0000000
B2   B   0.047311567003809   0.523979197869662   0.111018041317412   1.0000000
B2   B   0.047729749947751   0.666889595503489   0.111027038461431   1.0000000
B2   B   0.047893327911416   0.809662722357709   0.110999297656079   1.0000000
B2   B   0.190339298838297   0.952108693284586   0.110999297656079   1.0000000
B2   B   0.190031709824115   0.094437712575553   0.111069229547299   1.0000000
B2   B   0.189209145358140   0.236566301211811   0.111044825653680   1.0000000
B2   B   0.189120447754243   0.380275426500621   0.111023192920051   1.0000000
B2   B   0.189209145358140   0.524073249394331   0.111044825653680   1.0000000
B2   B   0.190031709824115   0.667024402496556   0.111069229547299   1.0000000
B2   B   0.190339298838297   0.809662722357709   0.110999297656079   1.0000000
B2   B   0.333112425693508   0.952272271248253   0.111027038461431   1.0000000
B2   B   0.332977618700442   0.094437712575553   0.111069229547299   1.0000000
B2   B   0.332407208893718   0.236242801837436   0.111059748194933   1.0000000
B2   B   0.330694868979623   0.376814016408036   0.110998476410654   1.0000000
B2   B   0.330694868979623   0.525311257818587   0.110998476410654   1.0000000
B2   B   0.332407208893718   0.667594812303281   0.111059748194933   1.0000000
B2   B   0.332977618700442   0.809970311371889   0.111069229547299   1.0000000
B2   B   0.476022823327338   0.952690454192196   0.111018041317412   1.0000000
B2   B   0.476022823327338   0.094762774382143   0.111018041317412   1.0000000
B2   B   0.475928771802668   0.236566301211811   0.111044825653680   1.0000000
B2   B   0.474690763378410   0.376814016408036   0.110998476410654   1.0000000
B2   B   0.474690763378410   0.669307152217374   0.110998476410654   1.0000000
B2   B   0.475928771802668   0.810792875837863   0.111044825653680   1.0000000
B2   B   0.619147555445850   0.952906253858622   0.111025111737877   1.0000000
B2   B   0.619029860044218   0.095229276867604   0.111025822048874   1.0000000
B2   B   0.619147555445850   0.237671706834229   0.111025111737877   1.0000000
B2   B   0.619726594695383   0.380275426500621   0.111023192920051   1.0000000
B2   B   0.623188004787965   0.525311257818587   0.110998476410654   1.0000000
B2   B   0.623188004787965   0.669307152217374   0.110998476410654   1.0000000
B2   B   0.619726594695383   0.810881573441761   0.111023192920051   1.0000000
B2   B   0.762330314361774   0.952906253858622   0.111025111737877   1.0000000
B2   B   0.761968048081275   0.095362768657546   0.111057864315865   1.0000000
B2   B   0.761968048081275   0.238033973114727   0.111057864315865   1.0000000
B2   B   0.762330314361774   0.380854465750152   0.111025111737877   1.0000000
B2   B   0.763435719984194   0.524073249394331   0.111044825653680   1.0000000
B2   B   0.763759219358565   0.667594812303281   0.111059748194933   1.0000000
B2   B   0.763435719984194   0.810792875837863   0.111044825653680   1.0000000
N2   N   0.952574841282689   0.904869701436455   0.111026602066181   1.0000000
N2   N   0.952388777986500   0.047612623931504   0.110989284947201   1.0000000
N2   N   0.952254355570979   0.190393807472753   0.111026225350877   1.0000000
N2   N   0.952254355570979   0.333287530216225   0.111026225350877   1.0000000
N2   N   0.952388777986500   0.476203136172995   0.110989284947201   1.0000000
N2   N   0.952574841282689   0.619133833521231   0.111026602066181   1.0000000
N2   N   0.952630037018741   0.762029365346870   0.111037697626313   1.0000000
N2   N   0.095268648953113   0.904732752964885   0.110979981536917   1.0000000
N2   N   0.095131700481544   0.047426560635317   0.111026602066181   1.0000000
N2   N   0.094737671823375   0.190004415838442   0.111010319308020   1.0000000
N2   N   0.094763821881934   0.333096257777968   0.111005933620271   1.0000000
N2   N   0.094737671823375   0.476161949658934   0.111010319308020   1.0000000
N2   N   0.095131700481544   0.619133833521231   0.111026602066181   1.0000000
N2   N   0.095268648953113   0.761966301219240   0.110979981536917   1.0000000
N2   N   0.238035100698765   0.904732752964885   0.110979981536917   1.0000000
N2   N   0.237972036571128   0.047371364899262   0.111037697626313   1.0000000
N2   N   0.237740338988571   0.189947779673459   0.111048898902107   1.0000000
N2   N   0.236628858407357   0.332147154879335   0.111012655815951   1.0000000
N2   N   0.236628858407357   0.475910397202015   0.111012655815951   1.0000000
N2   N   0.237740338988571   0.619221252990114   0.111048898902107   1.0000000
N2   N   0.237972036571128   0.762029365346870   0.111037697626313   1.0000000
N2   N   0.380867568396768   0.904869701436455   0.111026602066181   1.0000000
N2   N   0.380867568396768   0.047426560635317   0.111026602066181   1.0000000
N2   N   0.380780148927883   0.189947779673459   0.111048898902107   1.0000000
N2   N   0.380493713450579   0.332414718658153   0.111006850445932   1.0000000
N2   N   0.370963014928140   0.471195854301071   0.110934340846096   1.0000000
N2   N   0.380493713450579   0.619507688467419   0.111006850445932   1.0000000
N2   N   0.380780148927883   0.762261062929435   0.111048898902107   1.0000000
N2   N   0.523839452258064   0.905263730094625   0.111010319308020   1.0000000
N2   N   0.523798265744001   0.047612623931504   0.110989284947201   1.0000000
N2   N   0.523839452258064   0.190004415838442   0.111010319308020   1.0000000
N2   N   0.524091004714983   0.332147154879335   0.111012655815951   1.0000000
N2   N   0.528805547615926   0.471195854301071   0.110934340846096   1.0000000
N2   N   0.528805547615926   0.629038386989858   0.110934340846096   1.0000000
N2   N   0.524091004714983   0.763372543510651   0.111012655815951   1.0000000
N2   N   0.666905144139031   0.905237580036064   0.111005933620271   1.0000000
N2   N   0.666713871700772   0.047747046347025   0.111026225350877   1.0000000
N2   N   0.666713871700772   0.190393807472753   0.111026225350877   1.0000000
N2   N   0.666905144139031   0.333096257777968   0.111005933620271   1.0000000
N2   N   0.667854247037662   0.475910397202015   0.111012655815951   1.0000000
N2   N   0.667586683258841   0.619507688467419   0.111006850445932   1.0000000
N2   N   0.667854247037662   0.763372543510651   0.111012655815951   1.0000000
N2   N   0.809996986079560   0.905263730094625   0.111010319308020   1.0000000
N2   N   0.809607594445248   0.047747046347025   0.111026225350877   1.0000000
N2   N   0.809525273905997   0.190476128012001   0.111045911527609   1.0000000
N2   N   0.809607594445248   0.333287530216225   0.111026225350877   1.0000000
N2   N   0.809996986079560   0.476161949658934   0.111010319308020   1.0000000
N2   N   0.810053622244538   0.619221252990114   0.111048898902107   1.0000000
N2   N   0.810053622244538   0.762261062929435   0.111048898902107   1.0000000
O2   O   0.476191212381998   0.523810808815000   0.110790613952197   1.0000000


