data_1
_audit_creation_method   'vasp2cif'
_cell_length_a    14.93631414619966
_cell_length_b    14.936314146199727
_cell_length_c    13.341276283792837
_cell_angle_alpha    90.0
_cell_angle_beta    90.0
_cell_angle_gamma    119.99999999999984

_symmetry_space_group_name_H-M    'P 1'
loop_
_atom_site_label
_atom_site_type_symbol
_atom_site_fract_x
_atom_site_fract_y
_atom_site_fract_z
_atom_site_occupancy
Si2   Si   0.444444444444443   0.388888888888886   0.375000000000000   1.0000000
N2   N   0.111101611489206   0.055553573672615   0.125048147522294   1.0000000
N2   N   0.611110805133103   0.555570959768746   0.125028375016133   1.0000000
N2   N   0.444451962183408   0.055553573672615   0.125048147522294   1.0000000
N2   N   0.944438582469559   0.555555243652058   0.125005408561497   1.0000000
N2   N   0.777777777777779   0.055555555555557   0.124959912762048   1.0000000
N2   N   0.111111111111114   0.722222222222221   0.625007212532469   1.0000000
N2   N   0.444451962183408   0.722231721844129   0.624951852477706   1.0000000
N2   N   0.277762373564590   0.222222528200232   0.624971624983867   1.0000000
N2   N   0.777779759660721   0.722231721844129   0.624951852477706   1.0000000
N2   N   0.611121039351814   0.222212293981523   0.624946437576325   1.0000000
N2   N   0.944431436854080   0.222219162604759   0.625034724506681   1.0000000
N2   N   0.277778089681278   0.722216672150839   0.125005408561497   1.0000000
N2   N   0.111091254629717   0.222212293981523   0.125053562423675   1.0000000
N2   N   0.444460154635641   0.222222528200232   0.125028375016133   1.0000000
N2   N   0.611121039351814   0.722242078703619   0.125053562423675   1.0000000
N2   N   0.944438582469559   0.722216672150839   0.125005408561497   1.0000000
N2   N   0.777787725750679   0.222219162604759   0.124965275493318   1.0000000
N2   N   0.111116661182497   0.888894750863770   0.624994591438502   1.0000000
N2   N   0.444453424836038   0.888893379084684   0.625017170204319   1.0000000
N2   N   0.277762373564590   0.388873178697687   0.624971624983867   1.0000000
N2   N   0.611110805133103   0.388873178697687   0.624971624983867   1.0000000
N2   N   0.777787725750679   0.888901896479249   0.625034724506681   1.0000000
N2   N   0.944439954248645   0.388879908497291   0.625017170204319   1.0000000
N2   N   0.111101611489206   0.388881371149920   0.125048147522294   1.0000000
N2   N   0.277778089681278   0.888894750863770   0.125005408561497   1.0000000
N2   N   0.611114170728577   0.888901896479249   0.124965275493318   1.0000000
N2   N   0.444444444444443   0.388888888888886   0.123345081244264   1.0000000
N2   N   0.944439954248645   0.888893379084684   0.124982829795681   1.0000000
N2   N   0.777779759660721   0.388881371149920   0.125048147522294   1.0000000
N2   N   0.277780688924764   0.555552644408572   0.624939359809479   1.0000000
N2   N   0.111101611489206   0.055553573672615   0.624951852477706   1.0000000
N2   N   0.611110805133103   0.555570959768746   0.624971624983867   1.0000000
N2   N   0.444451962183408   0.055553573672615   0.624951852477706   1.0000000
N2   N   0.944438582469559   0.555555243652058   0.624994591438502   1.0000000
N2   N   0.111116661182497   0.555555243652058   0.125005408561497   1.0000000
N2   N   0.777777777777779   0.055555555555557   0.625040087237952   1.0000000
N2   N   0.277780688924764   0.055561377849529   0.125060640190520   1.0000000
N2   N   0.444460154635641   0.555570959768746   0.125028375016133   1.0000000
N2   N   0.777771955483807   0.555552644408572   0.125060640190520   1.0000000
N2   N   0.611114170728577   0.055545607582657   0.124965275493318   1.0000000
N2   N   0.444460154635641   0.555570959768746   0.624971624983867   1.0000000
N2   N   0.944431436854080   0.055545607582657   0.124965275493318   1.0000000
N2   N   0.277778089681278   0.722216672150839   0.624994591438502   1.0000000
N2   N   0.111091254629717   0.222212293981523   0.624946437576325   1.0000000
N2   N   0.444460154635641   0.222222528200232   0.624971624983867   1.0000000
N2   N   0.611121039351814   0.722242078703619   0.624946437576325   1.0000000
N2   N   0.944438582469559   0.722216672150839   0.624994591438502   1.0000000
N2   N   0.777787725750679   0.222219162604759   0.625034724506681   1.0000000
N2   N   0.111111111111114   0.722222222222221   0.124992787467531   1.0000000
N2   N   0.444451962183408   0.722231721844129   0.125048147522294   1.0000000
N2   N   0.277762373564590   0.222222528200232   0.125028375016133   1.0000000
N2   N   0.777779759660721   0.722231721844129   0.125048147522294   1.0000000
N2   N   0.611121039351814   0.222212293981523   0.125053562423675   1.0000000
N2   N   0.944431436854080   0.222219162604759   0.124965275493318   1.0000000
N2   N   0.111101611489206   0.388881371149920   0.624951852477706   1.0000000
N2   N   0.277778089681278   0.888894750863770   0.624994591438502   1.0000000
N2   N   0.611114170728577   0.888901896479249   0.625034724506681   1.0000000
N2   N   0.444444444444443   0.388888888888886   0.626654918755735   1.0000000
N2   N   0.944439954248645   0.888893379084684   0.625017170204319   1.0000000
N2   N   0.111116661182497   0.888894750863770   0.125005408561497   1.0000000
N2   N   0.777779759660721   0.388881371149920   0.624951852477706   1.0000000
N2   N   0.444453424836038   0.888893379084684   0.124982829795681   1.0000000
N2   N   0.277762373564590   0.388873178697687   0.125028375016133   1.0000000
N2   N   0.277780688924764   0.555552644408572   0.125060640190520   1.0000000
N2   N   0.611110805133103   0.388873178697687   0.125028375016133   1.0000000
N2   N   0.777787725750679   0.888901896479249   0.124965275493318   1.0000000
N2   N   0.944439954248645   0.388879908497291   0.124982829795681   1.0000000
N2   N   0.111116661182497   0.555555243652058   0.624994591438502   1.0000000
N2   N   0.277780688924764   0.055561377849529   0.624939359809479   1.0000000
N2   N   0.777771955483807   0.555552644408572   0.624939359809479   1.0000000
N2   N   0.611114170728577   0.055545607582657   0.625034724506681   1.0000000
N2   N   0.944431436854080   0.055545607582657   0.625034724506681   1.0000000
N2   N   0.054815867913795   0.110592032141780   0.375000000000000   1.0000000
N2   N   0.555951528099781   0.611903056199562   0.375000000000000   1.0000000
N2   N   0.387885271163219   0.106509080533167   0.375000000000000   1.0000000
N2   N   0.890577687716306   0.611955510524825   0.375000000000000   1.0000000
N2   N   0.722352915752232   0.110980417581103   0.375000000000000   1.0000000
N2   N   0.055556946457640   0.777776386875696   0.875000000000000   1.0000000
N2   N   0.388890548499468   0.777775911255302   0.875000000000000   1.0000000
N2   N   0.222225914770094   0.277779624051715   0.875000000000000   1.0000000
N2   N   0.722223038116182   0.777771442462647   0.875000000000000   1.0000000
N2   N   0.555553709281622   0.277779624051715   0.875000000000000   1.0000000
N2   N   0.888890789440037   0.277781578880085   0.875000000000000   1.0000000
N2   N   0.221884791303380   0.777609062318357   0.375000000000000   1.0000000
N2   N   0.054815867913795   0.277557169105351   0.375000000000000   1.0000000
N2   N   0.381270092157802   0.262540184315612   0.375000000000000   1.0000000
N2   N   0.555776164227984   0.778517465419541   0.375000000000000   1.0000000
N2   N   0.890156025730596   0.778775234087872   0.375000000000000   1.0000000
N2   N   0.722741301191556   0.277557169105351   0.375000000000000   1.0000000
N2   N   0.055557422078033   0.944447970577501   0.875000000000000   1.0000000
N2   N   0.388890548499468   0.944447970577501   0.875000000000000   1.0000000
N2   N   0.222218566728098   0.444444494230908   0.875000000000000   1.0000000
N2   N   0.555563185556723   0.444448259445026   0.875000000000000   1.0000000
N2   N   0.722222543028735   0.944445086057470   0.875000000000000   1.0000000
N2   N   0.888885362755828   0.444442784833861   0.875000000000000   1.0000000
N2   N   0.054558099245463   0.444714124976059   0.375000000000000   1.0000000
N2   N   0.221377822808511   0.942755645617023   0.375000000000000   1.0000000
N2   N   0.555752021444485   0.944542677388908   0.375000000000000   1.0000000
N2   N   0.381270092157802   0.452063241175526   0.375000000000000   1.0000000
N2   N   0.888790655944421   0.944542677388908   0.375000000000000   1.0000000
N2   N   0.726824252800169   0.445448062170110   0.375000000000000   1.0000000
N2   N   0.222221144782816   0.611112188550519   0.875000000000000   1.0000000
N2   N   0.055561890870688   0.111110295217153   0.875000000000000   1.0000000
N2   N   0.555553709281622   0.611107418563242   0.875000000000000   1.0000000
N2   N   0.388888839102421   0.111107405830527   0.875000000000000   1.0000000
N2   N   0.888891043767696   0.611112188550519   0.875000000000000   1.0000000
N2   N   0.055724271014978   0.611448542029955   0.375000000000000   1.0000000
N2   N   0.722222543028735   0.111110790304600   0.875000000000000   1.0000000
N2   N   0.218623809369942   0.106509080533167   0.375000000000000   1.0000000
N2   N   0.387885271163219   0.614709523963394   0.375000000000000   1.0000000
N2   N   0.726824252800169   0.614709523963394   0.375000000000000   1.0000000
N2   N   0.555776164227984   0.110592032141780   0.375000000000000   1.0000000
N2   N   0.388888839102421   0.611114766605238   0.875000000000000   1.0000000
N2   N   0.888627501828864   0.110980417581103   0.375000000000000   1.0000000
N2   N   0.222219440418055   0.777776386875696   0.875000000000000   1.0000000
N2   N   0.055561890870688   0.277784928986871   0.875000000000000   1.0000000
N2   N   0.388885073888303   0.277770147776613   0.875000000000000   1.0000000
N2   N   0.555548404346467   0.777771442462647   0.875000000000000   1.0000000
N2   N   0.888885362755828   0.777775911255302   0.875000000000000   1.0000000
N2   N   0.722223038116182   0.277784928986871   0.875000000000000   1.0000000
N2   N   0.055724271014978   0.777609062318357   0.375000000000000   1.0000000
N2   N   0.388619208357270   0.778775234087872   0.375000000000000   1.0000000
N2   N   0.221430277133774   0.277381805233555   0.375000000000000   1.0000000
N2   N   0.722741301191556   0.778517465419541   0.375000000000000   1.0000000
N2   N   0.555951528099781   0.277381805233555   0.375000000000000   1.0000000
N2   N   0.888790655944421   0.277581311888851   0.375000000000000   1.0000000
N2   N   0.055557422078033   0.444442784833861   0.875000000000000   1.0000000
N2   N   0.222221144782816   0.944442289565633   0.875000000000000   1.0000000
N2   N   0.555551754453249   0.944442543893291   0.875000000000000   1.0000000
N2   N   0.388885073888303   0.444448259445026   0.875000000000000   1.0000000
N2   N   0.888890789440037   0.944442543893291   0.875000000000000   1.0000000
N2   N   0.054558099245463   0.943177307602733   0.375000000000000   1.0000000
N2   N   0.722225927502810   0.444444494230908   0.875000000000000   1.0000000
N2   N   0.388619208357270   0.943177307602733   0.375000000000000   1.0000000
N2   N   0.218623809369942   0.445448062170110   0.375000000000000   1.0000000
N2   N   0.221377822808511   0.611955510524825   0.375000000000000   1.0000000
N2   N   0.570793149017724   0.452063241175526   0.375000000000000   1.0000000
N2   N   0.722352915752232   0.944705831504465   0.375000000000000   1.0000000
N2   N   0.890156025730596   0.444714124976059   0.375000000000000   1.0000000
N2   N   0.055556946457640   0.611113892915281   0.875000000000000   1.0000000
N2   N   0.222218566728098   0.111107405830527   0.875000000000000   1.0000000
N2   N   0.722225927502810   0.611114766605238   0.875000000000000   1.0000000
N2   N   0.555548404346467   0.111110295217153   0.875000000000000   1.0000000
N2   N   0.888888247275859   0.111110790304600   0.875000000000000   1.0000000
B2   B   0.108716580117014   0.053266483690000   0.375000000000000   1.0000000
B2   B   0.617351192418696   0.560933047119924   0.375000000000000   1.0000000
B2   B   0.444549903572986   0.053266483690000   0.375000000000000   1.0000000
B2   B   0.945191220804234   0.555822545218534   0.375000000000000   1.0000000
B2   B   0.777777777777779   0.055555555555557   0.375000000000000   1.0000000
B2   B   0.111111111111114   0.722222222222221   0.875000000000000   1.0000000
B2   B   0.444441263877954   0.722218351718347   0.875000000000000   1.0000000
B2   B   0.277760329401186   0.222250488336262   0.875000000000000   1.0000000
B2   B   0.777777087840395   0.722218351718347   0.875000000000000   1.0000000
B2   B   0.611081330437871   0.222252002895464   0.875000000000000   1.0000000
B2   B   0.944423973306352   0.222250082425815   0.875000000000000   1.0000000
B2   B   0.277510788114799   0.722702008919033   0.375000000000000   1.0000000
B2   B   0.110325379513440   0.221829356423384   0.375000000000000   1.0000000
B2   B   0.443581854701228   0.215982140914641   0.375000000000000   1.0000000
B2   B   0.611503976909952   0.723007953819895   0.375000000000000   1.0000000
B2   B   0.945191220804234   0.722702008919033   0.375000000000000   1.0000000
B2   B   0.777923518352250   0.221925097692372   0.375000000000000   1.0000000
B2   B   0.111160699062050   0.888911913336267   0.875000000000000   1.0000000
B2   B   0.444490232287804   0.888911782810568   0.875000000000000   1.0000000
B2   B   0.277760329401186   0.388843174398253   0.875000000000000   1.0000000
B2   B   0.611082844997072   0.388843174398253   0.875000000000000   1.0000000
B2   B   0.777826109119462   0.888909360026977   0.875000000000000   1.0000000
B2   B   0.944421550522761   0.388843101045525   0.875000000000000   1.0000000
B2   B   0.108716580117014   0.388783429760343   0.375000000000000   1.0000000
B2   B   0.277510788114799   0.888142112529094   0.375000000000000   1.0000000
B2   B   0.611408235640964   0.889331753993207   0.375000000000000   1.0000000
B2   B   0.944300146337443   0.889033186995886   0.375000000000000   1.0000000
B2   B   0.780066849643336   0.388783429760343   0.375000000000000   1.0000000
B2   B   0.277753374876849   0.555579958456486   0.875000000000000   1.0000000
B2   B   0.111114981614988   0.055556245492942   0.875000000000000   1.0000000
B2   B   0.611082844997072   0.555573003932150   0.875000000000000   1.0000000
B2   B   0.444441263877954   0.055556245492942   0.875000000000000   1.0000000
B2   B   0.944421419997062   0.555582119059115   0.875000000000000   1.0000000
B2   B   0.110631324414302   0.555822545218534   0.375000000000000   1.0000000
B2   B   0.777777777777779   0.055555555555557   0.875000000000000   1.0000000
B2   B   0.276447442652918   0.052894885305836   0.375000000000000   1.0000000
B2   B   0.443581854701228   0.560933047119924   0.375000000000000   1.0000000
B2   B   0.780438448027500   0.556885890680416   0.375000000000000   1.0000000
B2   B   0.611408235640964   0.055409814981085   0.375000000000000   1.0000000
B2   B   0.444490158935076   0.555573003932150   0.875000000000000   1.0000000
B2   B   0.944001579340121   0.055409814981085   0.375000000000000   1.0000000
B2   B   0.277751214274222   0.722172634271285   0.875000000000000   1.0000000
B2   B   0.111170672457599   0.222252002895464   0.875000000000000   1.0000000
B2   B   0.444490158935076   0.222250488336262   0.875000000000000   1.0000000
B2   B   0.611081330437871   0.722162660875738   0.875000000000000   1.0000000
B2   B   0.944421419997062   0.722172634271285   0.875000000000000   1.0000000
B2   B   0.777826109119462   0.222250082425815   0.875000000000000   1.0000000
B2   B   0.111111111111114   0.722222222222221   0.375000000000000   1.0000000
B2   B   0.444549903572986   0.724616753216321   0.375000000000000   1.0000000
B2   B   0.272400286213413   0.215982140914641   0.375000000000000   1.0000000
B2   B   0.780066849643336   0.724616753216321   0.375000000000000   1.0000000
B2   B   0.611503976909952   0.221829356423384   0.375000000000000   1.0000000
B2   B   0.944001579340121   0.221925097692372   0.375000000000000   1.0000000
B2   B   0.111114981614988   0.388892069455374   0.875000000000000   1.0000000
B2   B   0.277751214274222   0.888911913336267   0.875000000000000   1.0000000
B2   B   0.611083250907520   0.888909360026977   0.875000000000000   1.0000000
B2   B   0.444444444444443   0.388888888888886   0.875000000000000   1.0000000
B2   B   0.944421550522761   0.888911782810568   0.875000000000000   1.0000000
B2   B   0.110631324414302   0.888142112529094   0.375000000000000   1.0000000
B2   B   0.777777087840395   0.388892069455374   0.875000000000000   1.0000000
B2   B   0.444733040658443   0.889033186995886   0.375000000000000   1.0000000
B2   B   0.272400286213413   0.389751478632101   0.375000000000000   1.0000000
B2   B   0.276447442652918   0.556885890680416   0.375000000000000   1.0000000
B2   B   0.617351192418696   0.389751478632101   0.375000000000000   1.0000000
B2   B   0.777923518352250   0.889331753993207   0.375000000000000   1.0000000
B2   B   0.944300146337443   0.388600292674886   0.375000000000000   1.0000000
B2   B   0.111160699062050   0.555582119059115   0.875000000000000   1.0000000
B2   B   0.277753374876849   0.055506749753699   0.875000000000000   1.0000000
B2   B   0.777826583579638   0.555579958456486   0.875000000000000   1.0000000
B2   B   0.611083250907520   0.055507224213873   0.875000000000000   1.0000000
B2   B   0.944423973306352   0.055507224213873   0.875000000000000   1.0000000
B2   B   0.055569106064533   0.111088715344033   0.125041935940209   1.0000000
B2   B   0.555559397600394   0.611118795200788   0.125110956130237   1.0000000
B2   B   0.388926934723755   0.111099789756067   0.125104793732063   1.0000000
B2   B   0.888871546441752   0.611102439887547   0.125036000082787   1.0000000
B2   B   0.722250010383891   0.111083322949445   0.124997140924599   1.0000000
B2   B   0.055579232618739   0.777754100714597   0.624981864230516   1.0000000
B2   B   0.388923469952424   0.777751675144856   0.624972621332167   1.0000000
B2   B   0.222214538132546   0.277773935732942   0.624889043869762   1.0000000
B2   B   0.722244617989302   0.777764227268803   0.624958064059791   1.0000000
B2   B   0.555559397600394   0.277773935732942   0.624889043869762   1.0000000
B2   B   0.888884132670997   0.277768265342000   0.625001813339007   1.0000000
B2   B   0.222174868095859   0.777754100714597   0.125018135769484   1.0000000
B2   B   0.055569106064533   0.277813724053836   0.125041935940209   1.0000000
B2   B   0.388903388827698   0.277806777655402   0.124499101398704   1.0000000
B2   B   0.555519609279498   0.777764227268803   0.125041935940209   1.0000000
B2   B   0.888828205192426   0.777751675144856   0.125027378667833   1.0000000
B2   B   0.722244617989302   0.277813724053836   0.125041935940209   1.0000000
B2   B   0.055581658188478   0.944505128140902   0.624972621332167   1.0000000
B2   B   0.388923469952424   0.944505128140902   0.624972621332167   1.0000000
B2   B   0.222172855032305   0.444406398609574   0.624895206267937   1.0000000
B2   B   0.555526555677932   0.444429944505630   0.625500898601296   1.0000000
B2   B   0.722250010383891   0.944500020767782   0.625002859075401   1.0000000
B2   B   0.888828205192426   0.444409863380905   0.624972621332167   1.0000000
B2   B   0.055581658188478   0.444409863380905   0.125027378667833   1.0000000
B2   B   0.222230893445789   0.944461786891576   0.125036000082787   1.0000000
B2   B   0.555565067991334   0.944449200662332   0.124998186660994   1.0000000
B2   B   0.388903388827698   0.444429944505630   0.124499101398704   1.0000000
B2   B   0.888884132670997   0.944449200662332   0.124998186660994   1.0000000
B2   B   0.722233543577269   0.444406398609574   0.125104793732063   1.0000000
B2   B   0.222230893445789   0.611102439887547   0.624963999917211   1.0000000
B2   B   0.055569106064533   0.111088715344033   0.624958064059791   1.0000000
B2   B   0.555559397600394   0.611118795200788   0.624889043869762   1.0000000
B2   B   0.388926934723755   0.111099789756067   0.624895206267937   1.0000000
B2   B   0.888871546441752   0.611102439887547   0.624963999917211   1.0000000
B2   B   0.055579232618739   0.611158465237477   0.125018135769484   1.0000000
B2   B   0.722250010383891   0.111083322949445   0.625002859075401   1.0000000
B2   B   0.222172855032305   0.111099789756067   0.125104793732063   1.0000000
B2   B   0.388926934723755   0.611160478301031   0.125104793732063   1.0000000
B2   B   0.722233543577269   0.611160478301031   0.125104793732063   1.0000000
B2   B   0.555519609279498   0.111088715344033   0.125041935940209   1.0000000
B2   B   0.388926934723755   0.611160478301031   0.624895206267937   1.0000000
B2   B   0.888833312565546   0.111083322949445   0.124997140924599   1.0000000
B2   B   0.222174868095859   0.777754100714597   0.624981864230516   1.0000000
B2   B   0.055569106064533   0.277813724053836   0.624958064059791   1.0000000
B2   B   0.388903388827698   0.277806777655402   0.625500898601296   1.0000000
B2   B   0.555519609279498   0.777764227268803   0.624958064059791   1.0000000
B2   B   0.888828205192426   0.777751675144856   0.624972621332167   1.0000000
B2   B   0.722244617989302   0.277813724053836   0.624958064059791   1.0000000
B2   B   0.055579232618739   0.777754100714597   0.125018135769484   1.0000000
B2   B   0.388923469952424   0.777751675144856   0.125027378667833   1.0000000
B2   B   0.222214538132546   0.277773935732942   0.125110956130237   1.0000000
B2   B   0.722244617989302   0.777764227268803   0.125041935940209   1.0000000
B2   B   0.555559397600394   0.277773935732942   0.125110956130237   1.0000000
B2   B   0.888884132670997   0.277768265342000   0.124998186660994   1.0000000
B2   B   0.055581658188478   0.444409863380905   0.624972621332167   1.0000000
B2   B   0.222230893445789   0.944461786891576   0.624963999917211   1.0000000
B2   B   0.555565067991334   0.944449200662332   0.625001813339007   1.0000000
B2   B   0.388903388827698   0.444429944505630   0.625500898601296   1.0000000
B2   B   0.888884132670997   0.944449200662332   0.625001813339007   1.0000000
B2   B   0.055581658188478   0.944505128140902   0.125027378667833   1.0000000
B2   B   0.722233543577269   0.444406398609574   0.624895206267937   1.0000000
B2   B   0.388923469952424   0.944505128140902   0.125027378667833   1.0000000
B2   B   0.222172855032305   0.444406398609574   0.125104793732063   1.0000000
B2   B   0.222230893445789   0.611102439887547   0.125036000082787   1.0000000
B2   B   0.555526555677932   0.444429944505630   0.124499101398704   1.0000000
B2   B   0.722250010383891   0.944500020767782   0.124997140924599   1.0000000
B2   B   0.888828205192426   0.444409863380905   0.125027378667833   1.0000000
B2   B   0.055579232618739   0.611158465237477   0.624981864230516   1.0000000
B2   B   0.222172855032305   0.111099789756067   0.624895206267937   1.0000000
B2   B   0.722233543577269   0.611160478301031   0.624895206267937   1.0000000
B2   B   0.555519609279498   0.111088715344033   0.624958064059791   1.0000000
B2   B   0.888833312565546   0.111083322949445   0.625002859075401   1.0000000


