data_1
_audit_creation_method   'vasp2cif'
_cell_length_a    14.93631414619966
_cell_length_b    14.936314146199727
_cell_length_c    13.341276283792837
_cell_angle_alpha    90.0
_cell_angle_beta    90.0
_cell_angle_gamma    119.99999999999984

_symmetry_space_group_name_H-M    'P 1'
loop_
_atom_site_label
_atom_site_type_symbol
_atom_site_fract_x
_atom_site_fract_y
_atom_site_fract_z
_atom_site_occupancy
C2   C   0.548292358365069   0.440812845849199   0.375000000000000   1.0000000
N2   N   0.111120776463347   0.055558280937789   0.124998132111517   1.0000000
N2   N   0.611082598631601   0.555544865204803   0.125260954641042   1.0000000
N2   N   0.444444199662558   0.055554856068695   0.124998613794414   1.0000000
N2   N   0.944444309693210   0.555561704885069   0.124975315817232   1.0000000
N2   N   0.777787139586665   0.055560236460000   0.124950410786351   1.0000000
N2   N   0.111118996178821   0.722226164756074   0.625045084752353   1.0000000
N2   N   0.444444199662558   0.722222676927199   0.625001386205587   1.0000000
N2   N   0.277783559698201   0.222234253538190   0.624804725137242   1.0000000
N2   N   0.777770620377613   0.722210595273820   0.624983401709545   1.0000000
N2   N   0.611110800017446   0.222215575823983   0.624990803392620   1.0000000
N2   N   0.944456860555316   0.222232205847960   0.625027550961861   1.0000000
N2   N   0.277780792360258   0.722222024334615   0.124979731900942   1.0000000
N2   N   0.111123482001023   0.222228407667176   0.125026707092939   1.0000000
N2   N   0.444452386433932   0.222222311750044   0.125232759592713   1.0000000
N2   N   0.611110800017446   0.722228557526792   0.125009196607380   1.0000000
N2   N   0.944444309693210   0.722215938141476   0.124975315817232   1.0000000
N2   N   0.777783399848191   0.222229952870442   0.124959534715055   1.0000000
N2   N   0.111117323782395   0.888892103082044   0.625021969733197   1.0000000
N2   N   0.444444618405567   0.888888975869448   0.625039562676751   1.0000000
N2   N   0.277783559698201   0.388882639493340   0.624804725137242   1.0000000
N2   N   0.611082598631601   0.388871066760127   0.624739045358958   1.0000000
N2   N   0.777783399848191   0.888886780311078   0.625040465284944   1.0000000
N2   N   0.944454166514691   0.388900942360223   0.625034872160528   1.0000000
N2   N   0.111120776463347   0.388895828858887   0.124998132111517   1.0000000
N2   N   0.277780792360258   0.888892101358973   0.124979731900942   1.0000000
N2   N   0.611108371769009   0.888890655518229   0.124956738954563   1.0000000
N2   N   0.444447898434527   0.388890615883927   0.124850128347216   1.0000000
N2   N   0.944454166514691   0.888886557487796   0.124965127839472   1.0000000
N2   N   0.777770620377613   0.388893358437122   0.125016598290455   1.0000000
N2   N   0.277788764346776   0.555554519817178   0.624938455818690   1.0000000
N2   N   0.111120776463347   0.055558280937789   0.625001867888482   1.0000000
N2   N   0.611082598631601   0.555544865204803   0.624739045358958   1.0000000
N2   N   0.444444199662558   0.055554856068695   0.625001386205587   1.0000000
N2   N   0.944444309693210   0.555561704885069   0.625024684182767   1.0000000
N2   N   0.111117323782395   0.555558554033679   0.124978030266803   1.0000000
N2   N   0.777787139586665   0.055560236460000   0.625049589213649   1.0000000
N2   N   0.277788764346776   0.055567577862934   0.125061544181310   1.0000000
N2   N   0.444452386433932   0.555563408017224   0.125232759592713   1.0000000
N2   N   0.777752657602924   0.555542995468130   0.125104200528363   1.0000000
N2   N   0.611108371769009   0.055551049584109   0.124956738954563   1.0000000
N2   N   0.444452386433932   0.555563408017224   0.624767240407286   1.0000000
N2   N   0.944456860555316   0.055557988040691   0.124972449038139   1.0000000
N2   N   0.277780792360258   0.722222024334615   0.625020268099058   1.0000000
N2   N   0.111123482001023   0.222228407667176   0.624973292907062   1.0000000
N2   N   0.444452386433932   0.222222311750044   0.624767240407286   1.0000000
N2   N   0.611110800017446   0.722228557526792   0.624990803392620   1.0000000
N2   N   0.944444309693210   0.722215938141476   0.625024684182767   1.0000000
N2   N   0.777783399848191   0.222229952870442   0.625040465284944   1.0000000
N2   N   0.111118996178821   0.722226164756074   0.124954915247648   1.0000000
N2   N   0.444444199662558   0.722222676927199   0.124998613794414   1.0000000
N2   N   0.277783559698201   0.222234253538190   0.125195274862758   1.0000000
N2   N   0.777770620377613   0.722210595273820   0.125016598290455   1.0000000
N2   N   0.611110800017446   0.222215575823983   0.125009196607380   1.0000000
N2   N   0.944456860555316   0.222232205847960   0.124972449038139   1.0000000
N2   N   0.111120776463347   0.388895828858887   0.625001867888482   1.0000000
N2   N   0.277780792360258   0.888892101358973   0.625020268099058   1.0000000
N2   N   0.611108371769009   0.888890655518229   0.625043261045437   1.0000000
N2   N   0.444447898434527   0.388890615883927   0.625149871652784   1.0000000
N2   N   0.944454166514691   0.888886557487796   0.625034872160528   1.0000000
N2   N   0.111117323782395   0.888892103082044   0.124978030266803   1.0000000
N2   N   0.777770620377613   0.388893358437122   0.624983401709545   1.0000000
N2   N   0.444444618405567   0.888888975869448   0.124960437323249   1.0000000
N2   N   0.277783559698201   0.388882639493340   0.125195274862758   1.0000000
N2   N   0.277788764346776   0.555554519817178   0.125061544181310   1.0000000
N2   N   0.611082598631601   0.388871066760127   0.125260954641042   1.0000000
N2   N   0.777783399848191   0.888886780311078   0.124959534715055   1.0000000
N2   N   0.944454166514691   0.388900942360223   0.124965127839472   1.0000000
N2   N   0.111117323782395   0.555558554033679   0.625021969733197   1.0000000
N2   N   0.277788764346776   0.055567577862934   0.624938455818690   1.0000000
N2   N   0.777752657602924   0.555542995468130   0.624895799471637   1.0000000
N2   N   0.611108371769009   0.055551049584109   0.625043261045437   1.0000000
N2   N   0.944456860555316   0.055557988040691   0.625027550961861   1.0000000
N2   N   0.056392118074110   0.111647269134149   0.375000000000000   1.0000000
N2   N   0.556268473920857   0.616272547482533   0.375000000000000   1.0000000
N2   N   0.388895882267404   0.109849378261662   0.375000000000000   1.0000000
N2   N   0.886747364172405   0.610040348752874   0.375000000000000   1.0000000
N2   N   0.722768651375580   0.111022925128625   0.375000000000000   1.0000000
N2   N   0.055561621409314   0.777781725627642   0.875000000000000   1.0000000
N2   N   0.388898910805373   0.777785432365490   0.875000000000000   1.0000000
N2   N   0.222225288225184   0.277779310779260   0.875000000000000   1.0000000
N2   N   0.722230336016463   0.777783549536485   0.875000000000000   1.0000000
N2   N   0.555560123996797   0.277778229656486   0.875000000000000   1.0000000
N2   N   0.888897384777681   0.277782310945714   0.875000000000000   1.0000000
N2   N   0.221765707330734   0.777549520332035   0.375000000000000   1.0000000
N2   N   0.056392118074110   0.278078182273296   0.375000000000000   1.0000000
N2   N   0.390542739219610   0.274316435154914   0.375000000000000   1.0000000
N2   N   0.555736947717553   0.779660299883091   0.375000000000000   1.0000000
N2   N   0.888236448427201   0.777491860776865   0.375000000000000   1.0000000
N2   N   0.722922249164889   0.277080788784479   0.375000000000000   1.0000000
N2   N   0.055560831354434   0.944448511075383   0.875000000000000   1.0000000
N2   N   0.388898910805373   0.944446811773217   0.875000000000000   1.0000000
N2   N   0.222226210172210   0.444447169949362   0.875000000000000   1.0000000
N2   N   0.555566705793981   0.444450019563655   0.875000000000000   1.0000000
N2   N   0.722228316643652   0.944449316273420   0.875000000000000   1.0000000
N2   N   0.888896368442680   0.444446003764321   0.875000000000000   1.0000000
N2   N   0.055865328018090   0.444417805136578   0.375000000000000   1.0000000
N2   N   0.222013482446861   0.944353613219944   0.375000000000000   1.0000000
N2   N   0.555590332350100   0.944461832841714   0.375000000000000   1.0000000
N2   N   0.390542739219610   0.449559637398032   0.375000000000000   1.0000000
N2   N   0.889564027167440   0.945053590429726   0.375000000000000   1.0000000
N2   N   0.719274265782805   0.442524143697398   0.375000000000000   1.0000000
N2   N   0.222228749564249   0.611112700498338   0.875000000000000   1.0000000
N2   N   0.055560070296488   0.111112316647343   0.875000000000000   1.0000000
N2   N   0.555560123996797   0.611115227673646   0.875000000000000   1.0000000
N2   N   0.388896629506949   0.111113666116983   0.875000000000000   1.0000000
N2   N   0.888898290666161   0.611115811999752   0.875000000000000   1.0000000
N2   N   0.054788876776587   0.610770402463913   0.375000000000000   1.0000000
N2   N   0.722228316643652   0.111112333703568   0.875000000000000   1.0000000
N2   N   0.223591182873103   0.112246980804045   0.375000000000000   1.0000000
N2   N   0.388895882267404   0.612379837339085   0.375000000000000   1.0000000
N2   N   0.719274265782805   0.610083455418742   0.375000000000000   1.0000000
N2   N   0.555736947717553   0.109409981167798   0.375000000000000   1.0000000
N2   N   0.388896629506949   0.611116296723308   0.875000000000000   1.0000000
N2   N   0.889608966833859   0.111471150083601   0.375000000000000   1.0000000
N2   N   0.222230326356256   0.777781829844796   0.875000000000000   1.0000000
N2   N   0.055560070296488   0.277781086982481   0.875000000000000   1.0000000
N2   N   0.388893846214751   0.277778139395664   0.875000000000000   1.0000000
N2   N   0.555563128169349   0.777782396696444   0.875000000000000   1.0000000
N2   N   0.888896368442680   0.777783698011694   0.875000000000000   1.0000000
N2   N   0.722230336016463   0.277780119813314   0.875000000000000   1.0000000
N2   N   0.054788876776587   0.777351807646010   0.375000000000000   1.0000000
N2   N   0.388590061318577   0.778038687231552   0.375000000000000   1.0000000
N2   N   0.223507582665134   0.278420457999235   0.375000000000000   1.0000000
N2   N   0.722922249164889   0.779174793713746   0.375000000000000   1.0000000
N2   N   0.556268473920857   0.273329259771660   0.375000000000000   1.0000000
N2   N   0.889564027167440   0.277843770071050   0.375000000000000   1.0000000
N2   N   0.055560831354434   0.444445653612380   0.875000000000000   1.0000000
N2   N   0.222228749564249   0.944449382399246   0.875000000000000   1.0000000
N2   N   0.555562082689346   0.944447708011338   0.875000000000000   1.0000000
N2   N   0.388893846214751   0.444449040152422   0.875000000000000   1.0000000
N2   N   0.888897384777681   0.944448407165303   0.875000000000000   1.0000000
N2   N   0.055865328018090   0.944780856214840   0.375000000000000   1.0000000
N2   N   0.722226877838011   0.444446945854326   0.875000000000000   1.0000000
N2   N   0.388590061318577   0.943884707420361   0.375000000000000   1.0000000
N2   N   0.223591182873102   0.444677535402393   0.375000000000000   1.0000000
N2   N   0.222013482446861   0.610993202560253   0.375000000000000   1.0000000
N2   N   0.722768651375580   0.945079059580291   0.375000000000000   1.0000000
N2   N   0.888236448427201   0.444077920983671   0.375000000000000   1.0000000
N2   N   0.055561621409314   0.611113229115008   0.875000000000000   1.0000000
N2   N   0.222226210172210   0.111112373556184   0.875000000000000   1.0000000
N2   N   0.722226877838011   0.611113265317021   0.875000000000000   1.0000000
N2   N   0.555563128169349   0.111114064806240   0.875000000000000   1.0000000
N2   N   0.888894306944885   0.111113820139114   0.875000000000000   1.0000000
B2   B   0.111590658285171   0.055930684253014   0.375000000000000   1.0000000
B2   B   0.608183706788438   0.560018886484542   0.375000000000000   1.0000000
B2   B   0.444793834203095   0.054311913721230   0.375000000000000   1.0000000
B2   B   0.943493108075275   0.555157859430137   0.375000000000000   1.0000000
B2   B   0.778468359493077   0.055900846413206   0.375000000000000   1.0000000
B2   B   0.110927129065356   0.722130231199343   0.875000000000000   1.0000000
B2   B   0.444548447263204   0.722429604474957   0.875000000000000   1.0000000
B2   B   0.277858470774541   0.222115850751670   0.875000000000000   1.0000000
B2   B   0.777895515791881   0.722152512989461   0.875000000000000   1.0000000
B2   B   0.610935569541637   0.222115140776340   0.875000000000000   1.0000000
B2   B   0.944536541916101   0.222409919903714   0.875000000000000   1.0000000
B2   B   0.277518063920558   0.722312385978966   0.375000000000000   1.0000000
B2   B   0.111259300860062   0.222296317096695   0.375000000000000   1.0000000
B2   B   0.446701940515900   0.219902908636728   0.375000000000000   1.0000000
B2   B   0.612600175464607   0.726574576644624   0.375000000000000   1.0000000
B2   B   0.943493108075275   0.721668581978473   0.375000000000000   1.0000000
B2   B   0.778718030196675   0.221896579581765   0.375000000000000   1.0000000
B2   B   0.111205972543889   0.888793053824966   0.875000000000000   1.0000000
B2   B   0.444266289640727   0.888799811487027   0.875000000000000   1.0000000
B2   B   0.277858470774541   0.389075953356200   0.875000000000000   1.0000000
B2   B   0.611226159882634   0.388790561169025   0.875000000000000   1.0000000
B2   B   0.777885284326126   0.889095174323100   0.875000000000000   1.0000000
B2   B   0.944260595864679   0.388791922690744   0.875000000000000   1.0000000
B2   B   0.111590658285171   0.388993307365485   0.375000000000000   1.0000000
B2   B   0.277518063920558   0.888539011274921   0.375000000000000   1.0000000
B2   B   0.611765049358607   0.890238879446805   0.375000000000000   1.0000000
B2   B   0.944494465600725   0.889024935241404   0.375000000000000   1.0000000
B2   B   0.777186462797703   0.387937044382615   0.375000000000000   1.0000000
B2   B   0.277584292383959   0.555469341529925   0.875000000000000   1.0000000
B2   B   0.111194554588391   0.055734969735764   0.875000000000000   1.0000000
B2   B   0.611226159882634   0.555768932046938   0.875000000000000   1.0000000
B2   B   0.444548447263204   0.055452176121582   0.875000000000000   1.0000000
B2   B   0.944554279147122   0.555463400139723   0.875000000000000   1.0000000
B2   B   0.110664977498121   0.555438922134853   0.375000000000000   1.0000000
B2   B   0.777593832980968   0.055463583157152   0.875000000000000   1.0000000
B2   B   0.277664325734178   0.054994871720263   0.375000000000000   1.0000000
B2   B   0.446701940515900   0.560132365212508   0.375000000000000   1.0000000
B2   B   0.775466844647427   0.554400088990381   0.375000000000000   1.0000000
B2   B   0.611765049358607   0.054859503245130   0.375000000000000   1.0000000
B2   B   0.444541256719806   0.555477744053467   0.875000000000000   1.0000000
B2   B   0.944947056987367   0.055935598559789   0.375000000000000   1.0000000
B2   B   0.277877192307818   0.722133896782850   0.875000000000000   1.0000000
B2   B   0.110905935196407   0.222119634264868   0.875000000000000   1.0000000
B2   B   0.444541256719806   0.222396845999675   0.875000000000000   1.0000000
B2   B   0.610935569541637   0.722153762098626   0.875000000000000   1.0000000
B2   B   0.944554279147122   0.722424212340734   0.875000000000000   1.0000000
B2   B   0.777885284326126   0.222123443336354   0.875000000000000   1.0000000
B2   B   0.110530841329910   0.721932087331619   0.375000000000000   1.0000000
B2   B   0.444793834203095   0.723815253815201   0.375000000000000   1.0000000
B2   B   0.278780259213110   0.223611920518405   0.375000000000000   1.0000000
B2   B   0.777186462797703   0.722582751748416   0.375000000000000   1.0000000
B2   B   0.612600175464607   0.219358932153311   0.375000000000000   1.0000000
B2   B   0.944947056987367   0.222344791760914   0.375000000000000   1.0000000
B2   B   0.111194554588391   0.388792918185956   0.875000000000000   1.0000000
B2   B   0.277877192307818   0.889076628858296   0.875000000000000   1.0000000
B2   B   0.611218111857606   0.888807886876002   0.875000000000000   1.0000000
B2   B   0.444245430190804   0.388789381762066   0.875000000000000   1.0000000
B2   B   0.944260595864679   0.888802006507264   0.875000000000000   1.0000000
B2   B   0.110664977498121   0.888559388696597   0.375000000000000   1.0000000
B2   B   0.777895515791881   0.389076336135749   0.875000000000000   1.0000000
B2   B   0.444478943006128   0.888906138169728   0.375000000000000   1.0000000
B2   B   0.278780259213110   0.388501672028034   0.375000000000000   1.0000000
B2   B   0.277664325734178   0.556002787347250   0.375000000000000   1.0000000
B2   B   0.608183706788438   0.381498153637224   0.375000000000000   1.0000000
B2   B   0.778718030196675   0.890154783948240   0.375000000000000   1.0000000
B2   B   0.944494465600725   0.388802863692651   0.375000000000000   1.0000000
B2   B   0.111205972543889   0.555746252052251   0.875000000000000   1.0000000
B2   B   0.277584292383959   0.055448284187370   0.875000000000000   1.0000000
B2   B   0.777610961761822   0.555472147547578   0.875000000000000   1.0000000
B2   B   0.611218111857606   0.055743558314932   0.875000000000000   1.0000000
B2   B   0.944536541916101   0.055459955345723   0.875000000000000   1.0000000
B2   B   0.055520056573326   0.111073449170166   0.125000893765521   1.0000000
B2   B   0.555563257494158   0.611177059257646   0.125000429528800   1.0000000
B2   B   0.388882815023121   0.111050882661682   0.125065099360278   1.0000000
B2   B   0.888957715465527   0.611145524399434   0.125100961716953   1.0000000
B2   B   0.722234105959956   0.111110472756846   0.125026011835403   1.0000000
B2   B   0.055565396010976   0.777770480161579   0.624956789631855   1.0000000
B2   B   0.388872763434012   0.777794278834828   0.624972274482014   1.0000000
B2   B   0.222190789688076   0.277762061510706   0.624976387394147   1.0000000
B2   B   0.722264405753378   0.777828968210481   0.624944510760366   1.0000000
B2   B   0.555563257494158   0.277719531569848   0.624999570471201   1.0000000
B2   B   0.888896230654607   0.277786734631345   0.624965913890954   1.0000000
B2   B   0.222207546582619   0.777770439957978   0.125098881800210   1.0000000
B2   B   0.055520056573326   0.277779940736495   0.125000893765521   1.0000000
B2   B   0.388900327676786   0.277804631324009   0.125136033545466   1.0000000
B2   B   0.555563175695681   0.777830301916382   0.124992344319107   1.0000000
B2   B   0.888929524324761   0.777791134415685   0.125036863111111   1.0000000
B2   B   0.722264405753378   0.277768770876233   0.125055489239634   1.0000000
B2   B   0.055545913505232   0.944412030267862   0.624908673934505   1.0000000
B2   B   0.388872763434012   0.944411817932521   0.624972274482014   1.0000000
B2   B   0.222180920514058   0.444447731252169   0.624975005604944   1.0000000
B2   B   0.555491090035831   0.444412211684580   0.624992165654825   1.0000000
B2   B   0.722234105959956   0.944456966536446   0.624973988164597   1.0000000
B2   B   0.888929524324761   0.444471723242411   0.624963136888889   1.0000000
B2   B   0.055545913505232   0.444467216570698   0.125091326065495   1.0000000
B2   B   0.222192543913134   0.944386063124743   0.125029740187120   1.0000000
B2   B   0.555555070783588   0.944444202058458   0.125075579435188   1.0000000
B2   B   0.388900327676786   0.444429029686113   0.125136033545466   1.0000000
B2   B   0.888896230654607   0.944442829356597   0.125034086109047   1.0000000
B2   B   0.722283497194100   0.444452050511846   0.125040076294086   1.0000000
B2   B   0.222192543913134   0.611139814121727   0.624970259812880   1.0000000
B2   B   0.055520056573326   0.111073449170166   0.624999106234479   1.0000000
B2   B   0.555563257494158   0.611177059257646   0.624999570471201   1.0000000
B2   B   0.388882815023121   0.111050882661682   0.624934900639722   1.0000000
B2   B   0.888957715465527   0.611145524399434   0.624899038283047   1.0000000
B2   B   0.055565396010976   0.611128249182733   0.125043210368145   1.0000000
B2   B   0.722234105959956   0.111110472756846   0.624973988164597   1.0000000
B2   B   0.222180920514058   0.111066522595225   0.125024994395056   1.0000000
B2   B   0.388882815023121   0.611165265694782   0.125065099360278   1.0000000
B2   B   0.722283497194100   0.611164780015590   0.125040076294086   1.0000000
B2   B   0.555563175695681   0.111066207112635   0.124992344319107   1.0000000
B2   B   0.388882815023121   0.611165265694782   0.624934900639722   1.0000000
B2   B   0.888886955658058   0.111110144495700   0.125091218929403   1.0000000
B2   B   0.222207546582619   0.777770439957978   0.624901118199790   1.0000000
B2   B   0.055520056573326   0.277779940736495   0.624999106234479   1.0000000
B2   B   0.388900327676786   0.277804631324009   0.624863966454535   1.0000000
B2   B   0.555563175695681   0.777830301916382   0.625007655680892   1.0000000
B2   B   0.888929524324761   0.777791134415685   0.624963136888889   1.0000000
B2   B   0.722264405753378   0.277768770876233   0.624944510760366   1.0000000
B2   B   0.055565396010976   0.777770480161579   0.125043210368145   1.0000000
B2   B   0.388872763434012   0.777794278834828   0.125027725517986   1.0000000
B2   B   0.222190789688076   0.277762061510706   0.125023612605853   1.0000000
B2   B   0.722264405753378   0.777828968210481   0.125055489239634   1.0000000
B2   B   0.555563257494158   0.277719531569848   0.125000429528800   1.0000000
B2   B   0.888896230654607   0.277786734631345   0.125034086109047   1.0000000
B2   B   0.055545913505232   0.444467216570698   0.624908673934505   1.0000000
B2   B   0.222192543913134   0.944386063124743   0.624970259812880   1.0000000
B2   B   0.555555070783588   0.944444202058458   0.624924420564812   1.0000000
B2   B   0.388900327676786   0.444429029686113   0.624863966454535   1.0000000
B2   B   0.888896230654607   0.944442829356597   0.624965913890954   1.0000000
B2   B   0.055545913505232   0.944412030267862   0.125091326065495   1.0000000
B2   B   0.722283497194100   0.444452050511846   0.624959923705914   1.0000000
B2   B   0.388872763434012   0.944411817932521   0.125027725517986   1.0000000
B2   B   0.222180920514058   0.444447731252169   0.125024994395056   1.0000000
B2   B   0.222192543913134   0.611139814121727   0.125029740187120   1.0000000
B2   B   0.555491090035831   0.444412211684580   0.125007834345175   1.0000000
B2   B   0.722234105959956   0.944456966536446   0.125026011835403   1.0000000
B2   B   0.888929524324761   0.444471723242411   0.125036863111111   1.0000000
B2   B   0.055565396010976   0.611128249182733   0.624956789631855   1.0000000
B2   B   0.222180920514058   0.111066522595225   0.624975005604944   1.0000000
B2   B   0.722283497194100   0.611164780015590   0.624959923705914   1.0000000
B2   B   0.555563175695681   0.111066207112635   0.625007655680892   1.0000000
B2   B   0.888886955658058   0.111110144495700   0.624908781070597   1.0000000


