data_1
_audit_creation_method   'vasp2cif'
_cell_length_a    17.52789999999977
_cell_length_b    17.52789999999977
_cell_length_c    15.0
_cell_angle_alpha    90.0
_cell_angle_beta    90.0
_cell_angle_gamma    119.99999999999916

_symmetry_space_group_name_H-M    'P 1'
loop_
_atom_site_label
_atom_site_type_symbol
_atom_site_fract_x
_atom_site_fract_y
_atom_site_fract_z
_atom_site_occupancy
B2   B   0.905384105768833   0.952886040202741   0.107691126880650   1.0000000
B2   B   0.904675622406797   0.095326124285188   0.108488843221162   1.0000000
B2   B   0.904475574647133   0.238127465869150   0.109108055775600   1.0000000
B2   B   0.904736989333303   0.381111798554063   0.109113189102373   1.0000000
B2   B   0.905525994317057   0.524167746550717   0.108758844078000   1.0000000
B2   B   0.905834450276203   0.667265253301945   0.108644479364227   1.0000000
B2   B   0.905698430451978   0.810064841290843   0.108301497505593   1.0000000
B2   B   0.047780779275228   0.952220944089753   0.109493075387385   1.0000000
B2   B   0.047115675139247   0.094617614703174   0.107691126407649   1.0000000
B2   B   0.046792170951710   0.237567320551961   0.106527270330549   1.0000000
B2   B   0.046907810056926   0.380897710103033   0.106651183249215   1.0000000
B2   B   0.047476675783618   0.523993279357752   0.107760498366665   1.0000000
B2   B   0.048070918726072   0.666891914492553   0.109472134447730   1.0000000
B2   B   0.048087321731923   0.809635549616104   0.110322528210249   1.0000000
B2   B   0.190366200076902   0.951914441361101   0.110322526684252   1.0000000
B2   B   0.189936859745141   0.094303282256021   0.108301493381596   1.0000000
B2   B   0.188579714945106   0.236106457878727   0.105095317717097   1.0000000
B2   B   0.188700789150024   0.380172554490175   0.106154781792496   1.0000000
B2   B   0.189356727941954   0.523854479970714   0.106319228310265   1.0000000
B2   B   0.190542677355862   0.666790837848880   0.108574062232116   1.0000000
B2   B   0.190567234256068   0.809434460284909   0.110161240232522   1.0000000
B2   B   0.333109821212445   0.951930805107946   0.109472136861728   1.0000000
B2   B   0.332736460675054   0.094167289643842   0.108644474987227   1.0000000
B2   B   0.332114095816545   0.236508115862440   0.108546587366742   1.0000000
B2   B   0.328322945904575   0.377249276040523   0.119530630669056   1.0000000
B2   B   0.329601553011016   0.522531607747566   0.122370222818573   1.0000000
B2   B   0.333283699403216   0.666718003370770   0.112118929397251   1.0000000
B2   B   0.333210815471154   0.809458951487133   0.108574065765119   1.0000000
B2   B   0.476008408061249   0.952524905146371   0.107760503677667   1.0000000
B2   B   0.475833994955316   0.094475828358962   0.108758852771000   1.0000000
B2   B   0.475370120619172   0.235902013068466   0.107092294916603   1.0000000
B2   B   0.474292383190066   0.376028197235666   0.113809790460387   1.0000000
B2   B   0.477470176685416   0.670400304328987   0.122370223332579   1.0000000
B2   B   0.476147235819285   0.810644959126074   0.106319234047265   1.0000000
B2   B   0.619104028868970   0.953093874360067   0.106651185356216   1.0000000
B2   B   0.618889871793928   0.095264697948719   0.109113190188374   1.0000000
B2   B   0.618851371009440   0.237548773384481   0.108231511376846   1.0000000
B2   B   0.619628506823342   0.380373227385659   0.106341007627007   1.0000000
B2   B   0.623973371734340   0.525709284012943   0.113809785202385   1.0000000
B2   B   0.622752373414464   0.671678777811435   0.119530630382054   1.0000000
B2   B   0.619829188669816   0.811300980252989   0.106154777444493   1.0000000
B2   B   0.762434419976031   0.953209548575310   0.106527272556544   1.0000000
B2   B   0.761874229891843   0.095526101886872   0.109108058178599   1.0000000
B2   B   0.761840661534912   0.238161043645078   0.109890845115538   1.0000000
B2   B   0.762453048999519   0.381150384421596   0.108231502969846   1.0000000
B2   B   0.764099739107538   0.524631562187839   0.107092286952606   1.0000000
B2   B   0.763493542908572   0.667887584728452   0.108546595994742   1.0000000
B2   B   0.763895213545297   0.811422001736922   0.105095320191093   1.0000000
Sn2   Sn   0.475788388258726   0.524213267288277   0.219555062437026   1.0000000
N2   N   0.952693270500801   0.904934212069396   0.108670497239002   1.0000000
N2   N   0.952309106311219   0.047692610998780   0.108377717586845   1.0000000
N2   N   0.951970338795457   0.190423066105316   0.108416315877463   1.0000000
N2   N   0.951983209088358   0.333338790080865   0.108567432263059   1.0000000
N2   N   0.952408921864160   0.476287689397098   0.108747385350830   1.0000000
N2   N   0.952746432255774   0.619252896902672   0.109138777486143   1.0000000
N2   N   0.952831571471132   0.762109483152800   0.109422099639767   1.0000000
N2   N   0.095345950547959   0.904655801920036   0.110514328198737   1.0000000
N2   N   0.095067493368607   0.047308448314184   0.108670503735999   1.0000000
N2   N   0.094182072089492   0.189601916166440   0.105768154737923   1.0000000
N2   N   0.094235919043220   0.332900990955211   0.105623554089177   1.0000000
N2   N   0.094614857713804   0.476122203664701   0.106082675990039   1.0000000
N2   N   0.095409066735534   0.619120380927647   0.108499480383888   1.0000000
N2   N   0.095457753756319   0.761914758297426   0.110365547895616   1.0000000
N2   N   0.238086953863575   0.904543957001680   0.110365548787617   1.0000000
N2   N   0.237892246224204   0.047170197492859   0.109422092216770   1.0000000
N2   N   0.237459671687360   0.189693210996545   0.106896605941876   1.0000000
N2   N   0.235482772684519   0.331130216622859   0.105892013991024   1.0000000
N2   N   0.236301222960284   0.475751530525307   0.107117877650042   1.0000000
N2   N   0.238238012118341   0.619010941589666   0.108493323620834   1.0000000
N2   N   0.238184678249885   0.761816955945138   0.109390138089385   1.0000000
N2   N   0.380881290175360   0.904592559047472   0.108499484533891   1.0000000
N2   N   0.380748830284333   0.047255318664240   0.109138785234142   1.0000000
N2   N   0.380520278717393   0.189858229780168   0.107629027038843   1.0000000
N2   N   0.379972369689347   0.332569847490558   0.114252473903508   1.0000000
N2   N   0.369177228259665   0.469065003812908   0.140382444798162   1.0000000
N2   N   0.381280642327248   0.618721155631739   0.122148716060904   1.0000000
N2   N   0.380990796899310   0.761763694761651   0.108493328241835   1.0000000
N2   N   0.523879528563321   0.905386737802193   0.106082689768038   1.0000000
N2   N   0.523713968951894   0.047592739895842   0.108747385795836   1.0000000
N2   N   0.523613853615765   0.189819168901992   0.108026369060966   1.0000000
N2   N   0.523544355947010   0.331712372093135   0.106157151285876   1.0000000
N2   N   0.529769345447323   0.470232251177682   0.132763479866319   1.0000000
N2   N   0.530936655470093   0.630824453879315   0.140382446376164   1.0000000
N2   N   0.524250252087712   0.763700633367714   0.107117874834041   1.0000000
N2   N   0.667100799656786   0.905765828429772   0.105623551876177   1.0000000
N2   N   0.666662879650126   0.048018445160647   0.108567430795064   1.0000000
N2   N   0.666518880979311   0.190585388020889   0.109653688314662   1.0000000
N2   N   0.666641766040913   0.333360044508095   0.107061479674938   1.0000000
N2   N   0.668289292038872   0.476457360063008   0.106157130886877   1.0000000
N2   N   0.667431783153450   0.620029324855630   0.114252476538506   1.0000000
N2   N   0.668871449831152   0.764518984783458   0.105892006860017   1.0000000
N2   N   0.810399796349584   0.905819642944511   0.105768155113928   1.0000000
N2   N   0.809578659171693   0.048031370277518   0.108416325564462   1.0000000
N2   N   0.809334236531770   0.190667418160222   0.109898854528509   1.0000000
N2   N   0.809416350087101   0.333482804181698   0.109653682374667   1.0000000
N2   N   0.810182722653010   0.476387900834253   0.108026348549963   1.0000000
N2   N   0.810143491586817   0.619481425329609   0.107629042391845   1.0000000
N2   N   0.810308451097455   0.762542020096632   0.106896617237872   1.0000000


