data_1
_audit_creation_method   'vasp2cif'
_cell_length_a    14.93631414619966
_cell_length_b    14.936314146199727
_cell_length_c    13.341276283792837
_cell_angle_alpha    90.0
_cell_angle_beta    90.0
_cell_angle_gamma    119.99999999999984

_symmetry_space_group_name_H-M    'P 1'
loop_
_atom_site_label
_atom_site_type_symbol
_atom_site_fract_x
_atom_site_fract_y
_atom_site_fract_z
_atom_site_occupancy
O2   O   0.440708720863970   0.386625242367412   0.375000000000000   1.0000000
N2   N   0.110994597051133   0.055353892396294   0.125124921456098   1.0000000
N2   N   0.610985763919395   0.555363885852122   0.125370272982178   1.0000000
N2   N   0.444315722884747   0.055378339365681   0.125078649111275   1.0000000
N2   N   0.944321603028747   0.555350487751611   0.124948761793589   1.0000000
N2   N   0.777660345413688   0.055346946084478   0.125017336968348   1.0000000
N2   N   0.110993499527489   0.722026931820137   0.625017112258716   1.0000000
N2   N   0.444307441662731   0.722012448040212   0.624849170679727   1.0000000
N2   N   0.277636598650674   0.222006255705633   0.624463185069210   1.0000000
N2   N   0.777694050531997   0.722052324732173   0.624840809801508   1.0000000
N2   N   0.610979451178381   0.222017471440358   0.624785363726684   1.0000000
N2   N   0.944321243527133   0.221994900965978   0.625004267987284   1.0000000
N2   N   0.277649510205962   0.722021579148269   0.125028954977290   1.0000000
N2   N   0.110983261545619   0.221993405162856   0.125153641791349   1.0000000
N2   N   0.444283972848624   0.222023123401392   0.125300259616125   1.0000000
N2   N   0.610988930228193   0.722027598741402   0.125246679306514   1.0000000
N2   N   0.944349587637139   0.722044378338369   0.125003477896069   1.0000000
N2   N   0.777650611301408   0.222000004812576   0.125002762572600   1.0000000
N2   N   0.111005829526201   0.888708334858098   0.624952646079541   1.0000000
N2   N   0.444319616343777   0.888709187692143   0.624975014147789   1.0000000
N2   N   0.277631213289351   0.388635864222238   0.624555579467715   1.0000000
N2   N   0.610948526153361   0.388686013348981   0.625331522268590   1.0000000
N2   N   0.777676358971918   0.888700077143797   0.624913903801688   1.0000000
N2   N   0.944309685388462   0.388664798733838   0.625021697762747   1.0000000
N2   N   0.110979856198251   0.388658815870583   0.125078154358121   1.0000000
N2   N   0.277659218328314   0.888709245672546   0.124998411551575   1.0000000
N2   N   0.610986300174419   0.888697621215801   0.125060137900288   1.0000000
N2   N   0.444263902099836   0.388640323654093   0.125556620539752   1.0000000
N2   N   0.944356161964238   0.888712250992965   0.125051331665503   1.0000000
N2   N   0.777645364527813   0.388661579934924   0.125061087388371   1.0000000
N2   N   0.277641947527944   0.555327529018695   0.624817048508212   1.0000000
N2   N   0.110994597051133   0.055353892396294   0.624875078543902   1.0000000
N2   N   0.610985763919395   0.555363885852122   0.624629727017822   1.0000000
N2   N   0.444315722884747   0.055378339365681   0.624921350888725   1.0000000
N2   N   0.944321603028747   0.555350487751611   0.625051238206411   1.0000000
N2   N   0.110975559245099   0.555339216729157   0.124999143178189   1.0000000
N2   N   0.777660345413688   0.055346946084478   0.624982663031652   1.0000000
N2   N   0.277652534958557   0.055376507376144   0.125147383280092   1.0000000
N2   N   0.444312795832015   0.555324985137783   0.125546985246054   1.0000000
N2   N   0.777670387108739   0.555384029499153   0.125030793478652   1.0000000
N2   N   0.610982616926533   0.055367836959882   0.125025905960071   1.0000000
N2   N   0.444312795832015   0.555324985137783   0.624453014753960   1.0000000
N2   N   0.944338581869808   0.055345018223878   0.125051667185305   1.0000000
N2   N   0.277649510205962   0.722021579148269   0.624971045022710   1.0000000
N2   N   0.110983261545619   0.221993405162856   0.624846358208658   1.0000000
N2   N   0.444283972848624   0.222023123401392   0.624699740383875   1.0000000
N2   N   0.610988930228193   0.722027598741402   0.624753320693486   1.0000000
N2   N   0.944349587637139   0.722044378338369   0.624996522103930   1.0000000
N2   N   0.777650611301408   0.222000004812576   0.624997237427400   1.0000000
N2   N   0.110993499527489   0.722026931820137   0.124982887741284   1.0000000
N2   N   0.444307441662731   0.722012448040212   0.125150829320273   1.0000000
N2   N   0.277636598650674   0.222006255705633   0.125536814930790   1.0000000
N2   N   0.777694050531997   0.722052324732173   0.125159190198492   1.0000000
N2   N   0.610979451178381   0.222017471440358   0.125214636273316   1.0000000
N2   N   0.944321243527133   0.221994900965978   0.124995732012716   1.0000000
N2   N   0.110979856198251   0.388658815870583   0.624921845641880   1.0000000
N2   N   0.277659218328314   0.888709245672546   0.625001588448426   1.0000000
N2   N   0.610986300174419   0.888697621215801   0.624939862099712   1.0000000
N2   N   0.444263902099836   0.388640323654093   0.624443379460248   1.0000000
N2   N   0.944356161964238   0.888712250992965   0.624948668334497   1.0000000
N2   N   0.111005829526201   0.888708334858098   0.125047353920459   1.0000000
N2   N   0.777645364527813   0.388661579934924   0.624938912611628   1.0000000
N2   N   0.444319616343777   0.888709187692143   0.125024985852211   1.0000000
N2   N   0.277631213289351   0.388635864222238   0.125444420532292   1.0000000
N2   N   0.277641947527944   0.555327529018695   0.125182951491788   1.0000000
N2   N   0.610948526153361   0.388686013348981   0.124668477731410   1.0000000
N2   N   0.777676358971918   0.888700077143797   0.125086096198306   1.0000000
N2   N   0.944309685388462   0.388664798733838   0.124978302237254   1.0000000
N2   N   0.110975559245099   0.555339216729157   0.625000856821819   1.0000000
N2   N   0.277652534958557   0.055376507376144   0.624852616719908   1.0000000
N2   N   0.777670387108739   0.555384029499153   0.624969206521348   1.0000000
N2   N   0.610982616926533   0.055367836959882   0.624974094039936   1.0000000
N2   N   0.944338581869808   0.055345018223878   0.624948332814695   1.0000000
N2   N   0.054855604319749   0.110435543872829   0.375000000000000   1.0000000
N2   N   0.556840551049176   0.613497118782810   0.375000000000000   1.0000000
N2   N   0.390392330639024   0.115130302657831   0.375000000000000   1.0000000
N2   N   0.889531502634006   0.611216948082877   0.375000000000000   1.0000000
N2   N   0.721828119586100   0.110715920320739   0.375000000000000   1.0000000
N2   N   0.055469246453145   0.777608201636633   0.875000000000000   1.0000000
N2   N   0.388805191399104   0.777614202777291   0.875000000000000   1.0000000
N2   N   0.222137030170422   0.277616459072554   0.875000000000000   1.0000000
N2   N   0.722131458929577   0.777611250768024   0.875000000000000   1.0000000
N2   N   0.555470871235342   0.277608260364747   0.875000000000000   1.0000000
N2   N   0.888802699674602   0.277617259501702   0.875000000000000   1.0000000
N2   N   0.222906168950385   0.778080784969006   0.375000000000000   1.0000000
N2   N   0.054496587621517   0.277180267658572   0.375000000000000   1.0000000
N2   N   0.386804006733223   0.280627765191039   0.375000000000000   1.0000000
N2   N   0.555310981540707   0.778474474832378   0.375000000000000   1.0000000
N2   N   0.890995988610727   0.779447185940637   0.375000000000000   1.0000000
N2   N   0.722963146860861   0.277356752003257   0.375000000000000   1.0000000
N2   N   0.055467764864017   0.944278488307087   0.875000000000000   1.0000000
N2   N   0.388807073277424   0.944277947917251   0.875000000000000   1.0000000
N2   N   0.222137560640744   0.444283686959575   0.875000000000000   1.0000000
N2   N   0.555466447833777   0.444282337194600   0.875000000000000   1.0000000
N2   N   0.722133105996721   0.944281158283785   0.875000000000000   1.0000000
N2   N   0.888806359379204   0.444279574170876   0.875000000000000   1.0000000
N2   N   0.055753755147084   0.444139452327115   0.375000000000000   1.0000000
N2   N   0.223494246710365   0.945857837762773   0.375000000000000   1.0000000
N2   N   0.555212080112721   0.944841482855819   0.375000000000000   1.0000000
N2   N   0.386024061171192   0.439904737373840   0.375000000000000   1.0000000
N2   N   0.889071790654407   0.944498252530725   0.375000000000000   1.0000000
N2   N   0.725932868838053   0.445472460614168   0.375000000000000   1.0000000
N2   N   0.222136744318827   0.610947436231462   0.875000000000000   1.0000000
N2   N   0.055468925905497   0.110946544550721   0.875000000000000   1.0000000
N2   N   0.555463796225898   0.610944458862190   0.875000000000000   1.0000000
N2   N   0.388806867087346   0.110942730566955   0.875000000000000   1.0000000
N2   N   0.888803789355594   0.610939632139699   0.875000000000000   1.0000000
N2   N   0.056269457660717   0.611142631461571   0.375000000000000   1.0000000
N2   N   0.722130905338839   0.110945413291181   0.875000000000000   1.0000000
N2   N   0.222717677821155   0.112066842810956   0.375000000000000   1.0000000
N2   N   0.389294332622163   0.608704209380342   0.375000000000000   1.0000000
N2   N   0.725638524287960   0.615182843010387   0.375000000000000   1.0000000
N2   N   0.555771385907629   0.112359672433974   0.375000000000000   1.0000000
N2   N   0.388802212422966   0.610946765573654   0.875000000000000   1.0000000
N2   N   0.888359890135873   0.110557952264743   0.375000000000000   1.0000000
N2   N   0.222138934011488   0.777610579801579   0.875000000000000   1.0000000
N2   N   0.055470158106244   0.277617882913072   0.875000000000000   1.0000000
N2   N   0.388805306729771   0.277615733478343   0.875000000000000   1.0000000
N2   N   0.555466257349659   0.777613619053673   0.875000000000000   1.0000000
N2   N   0.888800505262946   0.777610037046732   0.875000000000000   1.0000000
N2   N   0.722136854082434   0.277611086313865   0.875000000000000   1.0000000
N2   N   0.056532986380747   0.778212912759375   0.375000000000000   1.0000000
N2   N   0.389012272862035   0.777227901906195   0.375000000000000   1.0000000
N2   N   0.219404105329144   0.276467860513467   0.375000000000000   1.0000000
N2   N   0.722968219632087   0.779056832434566   0.375000000000000   1.0000000
N2   N   0.558705092675092   0.281656957835064   0.375000000000000   1.0000000
N2   N   0.888758640339155   0.277308411362973   0.375000000000000   1.0000000
N2   N   0.055470095385838   0.444283946222051   0.875000000000000   1.0000000
N2   N   0.222139036744233   0.944277657072920   0.875000000000000   1.0000000
N2   N   0.555467014893853   0.944280181348350   0.875000000000000   1.0000000
N2   N   0.388802710200445   0.444284017961450   0.875000000000000   1.0000000
N2   N   0.888801052757543   0.944280152407301   0.875000000000000   1.0000000
N2   N   0.056608367250278   0.945178678898510   0.375000000000000   1.0000000
N2   N   0.722139062695341   0.444276200538471   0.875000000000000   1.0000000
N2   N   0.389321032536698   0.945606287787968   0.375000000000000   1.0000000
N2   N   0.221986303521362   0.443748055628205   0.375000000000000   1.0000000
N2   N   0.222751814864743   0.610691941623769   0.375000000000000   1.0000000
N2   N   0.721880880327382   0.944451896116461   0.375000000000000   1.0000000
N2   N   0.889622019384876   0.444324956886787   0.375000000000000   1.0000000
N2   N   0.055471259417279   0.610943840336257   0.875000000000000   1.0000000
N2   N   0.222137944129029   0.110946659014791   0.875000000000000   1.0000000
N2   N   0.722129113142799   0.610939745812368   0.875000000000000   1.0000000
N2   N   0.555467137491002   0.110941657586946   0.875000000000000   1.0000000
N2   N   0.888800983034397   0.110947024599987   0.875000000000000   1.0000000
B2   B   0.111407604214601   0.055846621657675   0.375000000000000   1.0000000
B2   B   0.619785330399685   0.569382458005626   0.375000000000000   1.0000000
B2   B   0.445112935426136   0.058038968408598   0.375000000000000   1.0000000
B2   B   0.944672957194552   0.555061558675282   0.375000000000000   1.0000000
B2   B   0.777214269442458   0.055539652567736   0.375000000000000   1.0000000
B2   B   0.111017299068439   0.722038750346306   0.875000000000000   1.0000000
B2   B   0.444349381579210   0.722070681005598   0.875000000000000   1.0000000
B2   B   0.277731458785876   0.222062732608082   0.875000000000000   1.0000000
B2   B   0.777685787049343   0.722017998735366   0.875000000000000   1.0000000
B2   B   0.611031105863168   0.222081315425514   0.875000000000000   1.0000000
B2   B   0.944331120027305   0.222076905909077   0.875000000000000   1.0000000
B2   B   0.277897245119527   0.722048133000064   0.375000000000000   1.0000000
B2   B   0.108333932344056   0.220781693756079   0.375000000000000   1.0000000
B2   B   0.451353199214370   0.229427719227427   0.375000000000000   1.0000000
B2   B   0.612301907888457   0.725817198698797   0.375000000000000   1.0000000
B2   B   0.945325610043395   0.722047881018694   0.375000000000000   1.0000000
B2   B   0.777419368556080   0.222044322642380   0.375000000000000   1.0000000
B2   B   0.111039647744072   0.888715862605970   0.875000000000000   1.0000000
B2   B   0.444363171906582   0.888754844075806   0.875000000000000   1.0000000
B2   B   0.277693123339718   0.388720896287706   0.875000000000000   1.0000000
B2   B   0.611043780545529   0.388688190114564   0.875000000000000   1.0000000
B2   B   0.777688459631677   0.888736353774467   0.875000000000000   1.0000000
B2   B   0.944320508452880   0.388722946585283   0.875000000000000   1.0000000
B2   B   0.110317207322527   0.388210115571313   0.375000000000000   1.0000000
B2   B   0.278526300788195   0.889661852463901   0.375000000000000   1.0000000
B2   B   0.610850345891710   0.889924583430150   0.375000000000000   1.0000000
B2   B   0.945860429832314   0.890095643709735   0.375000000000000   1.0000000
B2   B   0.776828412384374   0.388421737142705   0.375000000000000   1.0000000
B2   B   0.277671460524802   0.555390912816408   0.875000000000000   1.0000000
B2   B   0.111043601232420   0.055395428484141   0.875000000000000   1.0000000
B2   B   0.611024017537692   0.555333892483179   0.875000000000000   1.0000000
B2   B   0.444389922249299   0.055421952911882   0.875000000000000   1.0000000
B2   B   0.944330142514526   0.555351627429235   0.875000000000000   1.0000000
B2   B   0.111264194799637   0.555231645640138   0.375000000000000   1.0000000
B2   B   0.777676286157632   0.055425965965449   0.875000000000000   1.0000000
B2   B   0.279840018690327   0.057612186846334   0.375000000000000   1.0000000
B2   B   0.445403854817012   0.553747337155975   0.375000000000000   1.0000000
B2   B   0.776996274812770   0.552918791078709   0.375000000000000   1.0000000
B2   B   0.610709795337335   0.056461369015265   0.375000000000000   1.0000000
B2   B   0.444352781330521   0.555374257238374   0.875000000000000   1.0000000
B2   B   0.943797183800998   0.055203044470341   0.375000000000000   1.0000000
B2   B   0.277683078364692   0.722064392916254   0.875000000000000   1.0000000
B2   B   0.111019695294064   0.222064929716347   0.875000000000000   1.0000000
B2   B   0.444419845732800   0.222071336646020   0.875000000000000   1.0000000
B2   B   0.611020344400100   0.722052454141557   0.875000000000000   1.0000000
B2   B   0.944348962627816   0.722013044207661   0.875000000000000   1.0000000
B2   B   0.777665285165629   0.222084221655852   0.875000000000000   1.0000000
B2   B   0.111730764471854   0.722204372552585   0.375000000000000   1.0000000
B2   B   0.444156613374791   0.721337066899339   0.375000000000000   1.0000000
B2   B   0.274602880364096   0.222031991554007   0.375000000000000   1.0000000
B2   B   0.781335954013415   0.726327310231117   0.375000000000000   1.0000000
B2   B   0.611720385908575   0.225435819321089   0.375000000000000   1.0000000
B2   B   0.943349030201743   0.221619149652478   0.375000000000000   1.0000000
B2   B   0.110995524839125   0.388727309604057   0.875000000000000   1.0000000
B2   B   0.277711282800478   0.888736146884783   0.875000000000000   1.0000000
B2   B   0.611018814832363   0.888756458057696   0.875000000000000   1.0000000
B2   B   0.444395324757952   0.388706290095639   0.875000000000000   1.0000000
B2   B   0.944361238668037   0.888714325457275   0.875000000000000   1.0000000
B2   B   0.112282212112487   0.889543234476328   0.375000000000000   1.0000000
B2   B   0.777664065857013   0.388706400190107   0.875000000000000   1.0000000
B2   B   0.444264932365672   0.889286718429786   0.375000000000000   1.0000000
B2   B   0.274342591710359   0.385985595686238   0.375000000000000   1.0000000
B2   B   0.277581185998996   0.554712400094285   0.375000000000000   1.0000000
B2   B   0.778252457556398   0.890089739318683   0.375000000000000   1.0000000
B2   B   0.944200702768118   0.388481381043913   0.375000000000000   1.0000000
B2   B   0.110996560388344   0.555381501285969   0.875000000000000   1.0000000
B2   B   0.277737944958779   0.055405005864489   0.875000000000000   1.0000000
B2   B   0.777673800120351   0.555315789052217   0.875000000000000   1.0000000
B2   B   0.611021053189609   0.055433469972894   0.875000000000000   1.0000000
B2   B   0.944352021850051   0.055406450778047   0.875000000000000   1.0000000
B2   B   0.055424668026755   0.110864917989810   0.124987470938966   1.0000000
B2   B   0.555476124963730   0.610863382983880   0.124893218819795   1.0000000
B2   B   0.388887128395846   0.111053106756487   0.125323267433969   1.0000000
B2   B   0.888702026018547   0.610813519517716   0.125087710333481   1.0000000
B2   B   0.722076704591867   0.110999378800234   0.125065747731888   1.0000000
B2   B   0.055438586290843   0.777566440328284   0.625016032506865   1.0000000
B2   B   0.388744724865689   0.777662601443356   0.625026190176019   1.0000000
B2   B   0.222086358521378   0.277486341111457   0.624893394062526   1.0000000
B2   B   0.722187828479046   0.777623838356350   0.625054508614568   1.0000000
B2   B   0.555535688057053   0.277701982517478   0.623882624915432   1.0000000
B2   B   0.888655749909731   0.277558649284522   0.624958094516058   1.0000000
B2   B   0.222079814104902   0.777626485842140   0.124977847285193   1.0000000
B2   B   0.055353668288116   0.277531116900368   0.124972977869328   1.0000000
B2   B   0.388902344625336   0.277533636630050   0.125456809853722   1.0000000
B2   B   0.555435507409831   0.777655191711904   0.124960358743924   1.0000000
B2   B   0.888855550038209   0.777573699030349   0.124959768148072   1.0000000
B2   B   0.722006557066207   0.277616277966093   0.125444702964882   1.0000000
B2   B   0.055479529026000   0.944243403761456   0.625011329012437   1.0000000
B2   B   0.388812004466938   0.944391460929793   0.624958907362827   1.0000000
B2   B   0.222031048839276   0.444178100304579   0.624961458164817   1.0000000
B2   B   0.555481553682467   0.443946257127877   0.624317664528238   1.0000000
B2   B   0.722119044747527   0.944312479286645   0.625030907434255   1.0000000
B2   B   0.888577186324645   0.444156079146804   0.624837345104859   1.0000000
B2   B   0.055304229668039   0.444198719505971   0.124986669717802   1.0000000
B2   B   0.222152124389799   0.944299491746806   0.125032625469099   1.0000000
B2   B   0.555448785773560   0.944383692296736   0.125005488230009   1.0000000
B2   B   0.388800071771091   0.444069506576843   0.125277029957064   1.0000000
B2   B   0.888811803627808   0.944258356356280   0.124962481755596   1.0000000
B2   B   0.721913525818331   0.444049381736436   0.125856394020445   1.0000000
B2   B   0.222015854411980   0.610911011912096   0.625024835618318   1.0000000
B2   B   0.055424668026755   0.110864917989810   0.625012529061034   1.0000000
B2   B   0.555476124963730   0.610863382983880   0.625106781180205   1.0000000
B2   B   0.388887128395846   0.111053106756487   0.624676732566031   1.0000000
B2   B   0.888702026018547   0.610813519517716   0.624912289666526   1.0000000
B2   B   0.055324239311325   0.610864630237633   0.124986458374510   1.0000000
B2   B   0.722076704591867   0.110999378800234   0.624934252268111   1.0000000
B2   B   0.222146726548956   0.110884060442130   0.125153210222497   1.0000000
B2   B   0.388727306372231   0.610906080204278   0.125055065216139   1.0000000
B2   B   0.722209225310366   0.610810660522954   0.124908006941439   1.0000000
B2   B   0.555487749139482   0.111102562844697   0.125297552403376   1.0000000
B2   B   0.388727306372231   0.610906080204278   0.624944934783861   1.0000000
B2   B   0.888741490165779   0.110922851323947   0.124982432553785   1.0000000
B2   B   0.222079814104902   0.777626485842140   0.625022152714807   1.0000000
B2   B   0.055353668288116   0.277531116900368   0.625027022130679   1.0000000
B2   B   0.388902344625336   0.277533636630050   0.624543190146285   1.0000000
B2   B   0.555435507409831   0.777655191711904   0.625039641256077   1.0000000
B2   B   0.888855550038209   0.777573699030349   0.625040231851928   1.0000000
B2   B   0.722006557066207   0.277616277966093   0.624555297035118   1.0000000
B2   B   0.055438586290843   0.777566440328284   0.124983967493135   1.0000000
B2   B   0.388744724865689   0.777662601443356   0.124973809823980   1.0000000
B2   B   0.222086358521378   0.277486341111457   0.125106605937473   1.0000000
B2   B   0.722187828479046   0.777623838356350   0.124945491385431   1.0000000
B2   B   0.555535688057053   0.277701982517478   0.126117375084568   1.0000000
B2   B   0.888655749909731   0.277558649284522   0.125041905483942   1.0000000
B2   B   0.055304229668039   0.444198719505971   0.625013330282197   1.0000000
B2   B   0.222152124389799   0.944299491746806   0.624967374530900   1.0000000
B2   B   0.555448785773560   0.944383692296736   0.624994511769991   1.0000000
B2   B   0.388800071771091   0.444069506576843   0.624722970042936   1.0000000
B2   B   0.888811803627808   0.944258356356280   0.625037518244404   1.0000000
B2   B   0.055479529026000   0.944243403761456   0.124988670987563   1.0000000
B2   B   0.721913525818331   0.444049381736436   0.624143605979554   1.0000000
B2   B   0.388812004466938   0.944391460929793   0.125041092637173   1.0000000
B2   B   0.222031048839276   0.444178100304579   0.125038541835183   1.0000000
B2   B   0.222015854411980   0.610911011912096   0.124975164381682   1.0000000
B2   B   0.555481553682467   0.443946257127877   0.125682335471755   1.0000000
B2   B   0.722119044747527   0.944312479286645   0.124969092565745   1.0000000
B2   B   0.888577186324645   0.444156079146804   0.125162654895140   1.0000000
B2   B   0.055324239311325   0.610864630237633   0.625013541625490   1.0000000
B2   B   0.222146726548956   0.110884060442130   0.624846789777503   1.0000000
B2   B   0.722209225310366   0.610810660522954   0.625091993058561   1.0000000
B2   B   0.555487749139482   0.111102562844697   0.624702447596624   1.0000000
B2   B   0.888741490165779   0.110922851323947   0.625017567446215   1.0000000


