data_1
_audit_creation_method   'vasp2cif'
_cell_length_a    14.93631414619966
_cell_length_b    14.936314146199727
_cell_length_c    13.341276283792837
_cell_angle_alpha    90.0
_cell_angle_beta    90.0
_cell_angle_gamma    119.99999999999984

_symmetry_space_group_name_H-M    'P 1'
loop_
_atom_site_label
_atom_site_type_symbol
_atom_site_fract_x
_atom_site_fract_y
_atom_site_fract_z
_atom_site_occupancy
Ge2   Ge   0.444444444444443   0.388888888888886   0.375000000000000   1.0000000
N2   N   0.111102836210049   0.055532241381803   0.124800857048544   1.0000000
N2   N   0.611132111598496   0.555563419706890   0.125627796540839   1.0000000
N2   N   0.444429405171730   0.055532241381803   0.124800857048551   1.0000000
N2   N   0.944459257746684   0.555566784696226   0.125190310036870   1.0000000
N2   N   0.777777777777779   0.055555555555557   0.125364654733380   1.0000000
N2   N   0.111111111111114   0.722222222222221   0.624562013730659   1.0000000
N2   N   0.444429405171730   0.722230497123054   0.625199142951395   1.0000000
N2   N   0.277769913626527   0.222201221734902   0.624372203459220   1.0000000
N2   N   0.777801091951570   0.722230497123054   0.625199142951395   1.0000000
N2   N   0.611107441437425   0.222225891895960   0.625185618717398   1.0000000
N2   N   0.944452002338010   0.222230297505347   0.624877500477447   1.0000000
N2   N   0.277766548637043   0.722225806383964   0.125190310036870   1.0000000
N2   N   0.111118450458640   0.222225891895960   0.124814381282331   1.0000000
N2   N   0.444431308108471   0.222201221734902   0.125627796540853   1.0000000
N2   N   0.611107441437425   0.722214882874776   0.124814381282316   1.0000000
N2   N   0.944459257746684   0.722225806383964   0.125190310036870   1.0000000
N2   N   0.777778295167518   0.222230297505347   0.125122499522381   1.0000000
N2   N   0.111107526949572   0.888874075586644   0.624809689963053   1.0000000
N2   N   0.444433773778315   0.888883553555943   0.624899475537854   1.0000000
N2   N   0.277769913626527   0.388902025224858   0.624372203459220   1.0000000
N2   N   0.611132111598490   0.388902025224858   0.624372203459220   1.0000000
N2   N   0.777778295167518   0.888881330995319   0.624877500477447   1.0000000
N2   N   0.944449779777386   0.388899559555014   0.624899475537854   1.0000000
N2   N   0.111102836210050   0.388903928161599   0.124800857048543   1.0000000
N2   N   0.277766548637043   0.888874075586644   0.125190310036870   1.0000000
N2   N   0.611103035827915   0.888881330995319   0.125122499522381   1.0000000
N2   N   0.444444444444443   0.388888888888886   0.131397817030235   1.0000000
N2   N   0.944449779777386   0.888883553555943   0.125100524461934   1.0000000
N2   N   0.777801091951570   0.388903928161599   0.124800857048551   1.0000000
N2   N   0.277765306549789   0.555568026783508   0.625090307981613   1.0000000
N2   N   0.111102836210050   0.055532241381803   0.625199142951395   1.0000000
N2   N   0.611132111598496   0.555563419706890   0.624372203459220   1.0000000
N2   N   0.444429405171730   0.055532241381803   0.625199142951395   1.0000000
N2   N   0.944459257746684   0.555566784696226   0.624809689963053   1.0000000
N2   N   0.111107526949572   0.555566784696226   0.125190310036870   1.0000000
N2   N   0.777777777777779   0.055555555555557   0.624635345266529   1.0000000
N2   N   0.277765306549789   0.055530613099410   0.124909692018404   1.0000000
N2   N   0.444431308108471   0.555563419706890   0.125627796540840   1.0000000
N2   N   0.777802720233757   0.555568026783508   0.124909692018396   1.0000000
N2   N   0.611103035827915   0.055555038165903   0.125122499522381   1.0000000
N2   N   0.444431308108471   0.555563419706890   0.624372203459220   1.0000000
N2   N   0.944452002338010   0.055555038165903   0.125122499522381   1.0000000
N2   N   0.277766548637043   0.722225806383964   0.624809689963053   1.0000000
N2   N   0.111118450458640   0.222225891895960   0.625185618717398   1.0000000
N2   N   0.444431308108471   0.222201221734902   0.624372203459225   1.0000000
N2   N   0.611107441437425   0.722214882874776   0.625185618717398   1.0000000
N2   N   0.944459257746684   0.722225806383964   0.624809689963053   1.0000000
N2   N   0.777778295167518   0.222230297505347   0.624877500477447   1.0000000
N2   N   0.111111111111114   0.722222222222221   0.125437986269360   1.0000000
N2   N   0.444429405171730   0.722230497123054   0.124800857048543   1.0000000
N2   N   0.277769913626527   0.222201221734902   0.125627796540855   1.0000000
N2   N   0.777801091951570   0.722230497123054   0.124800857048543   1.0000000
N2   N   0.611107441437425   0.222225891895960   0.124814381282317   1.0000000
N2   N   0.944452002338010   0.222230297505347   0.125122499522381   1.0000000
N2   N   0.111102836210051   0.388903928161599   0.625199142951395   1.0000000
N2   N   0.277766548637043   0.888874075586644   0.624809689963053   1.0000000
N2   N   0.611103035827915   0.888881330995319   0.624877500477447   1.0000000
N2   N   0.444444444444443   0.388888888888886   0.618602182969753   1.0000000
N2   N   0.944449779777386   0.888883553555943   0.624899475537854   1.0000000
N2   N   0.111107526949572   0.888874075586644   0.125190310036870   1.0000000
N2   N   0.777801091951570   0.388903928161599   0.625199142951395   1.0000000
N2   N   0.444433773778315   0.888883553555943   0.125100524461934   1.0000000
N2   N   0.277769913626527   0.388902025224858   0.125627796540840   1.0000000
N2   N   0.277765306549789   0.555568026783508   0.124909692018404   1.0000000
N2   N   0.611132111598490   0.388902025224858   0.125627796540840   1.0000000
N2   N   0.777778295167518   0.888881330995319   0.125122499522381   1.0000000
N2   N   0.944449779777386   0.388899559555014   0.125100524461934   1.0000000
N2   N   0.111107526949572   0.555566784696226   0.624809689963053   1.0000000
N2   N   0.277765306549789   0.055530613099410   0.625090307981608   1.0000000
N2   N   0.777802720233757   0.555568026783508   0.625090307981608   1.0000000
N2   N   0.611103035827915   0.055555038165903   0.624877500477447   1.0000000
N2   N   0.944452002338010   0.055555038165903   0.624877500477447   1.0000000
N2   N   0.054570252642468   0.110457887612920   0.375000000000000   1.0000000
N2   N   0.556078254929720   0.612156509859157   0.375000000000000   1.0000000
N2   N   0.387922601218038   0.105708175881634   0.375000000000000   1.0000000
N2   N   0.890702866844440   0.612018100089051   0.375000000000000   1.0000000
N2   N   0.722397993370668   0.110935339962438   0.375000000000000   1.0000000
N2   N   0.055555105659119   0.777778227674199   0.875000000000000   1.0000000
N2   N   0.388890937991143   0.777779653205706   0.875000000000000   1.0000000
N2   N   0.222223268595241   0.277778300964391   0.875000000000000   1.0000000
N2   N   0.722224302287459   0.777783581246922   0.875000000000000   1.0000000
N2   N   0.555555032369100   0.277778300964393   0.875000000000000   1.0000000
N2   N   0.888888369292174   0.277776738584361   0.875000000000000   1.0000000
N2   N   0.221889228404690   0.777611280869042   0.375000000000000   1.0000000
N2   N   0.054570252642472   0.277445698362841   0.375000000000000   1.0000000
N2   N   0.379284283868453   0.258568567737024   0.375000000000000   1.0000000
N2   N   0.555887634970368   0.778763080690845   0.375000000000000   1.0000000
N2   N   0.890380460267004   0.779013073670692   0.375000000000000   1.0000000
N2   N   0.722875445720272   0.277445698362841   0.375000000000000   1.0000000
N2   N   0.055553680127609   0.944444618118845   0.875000000000000   1.0000000
N2   N   0.388890937991143   0.944444618118845   0.875000000000000   1.0000000
N2   N   0.222224071007943   0.444439096801356   0.875000000000000   1.0000000
N2   N   0.555536395727470   0.444434864530399   0.875000000000000   1.0000000
N2   N   0.722224031491241   0.944448062982393   0.875000000000000   1.0000000
N2   N   0.888888715214483   0.444442395342185   0.875000000000000   1.0000000
N2   N   0.054320259662538   0.444700719929595   0.375000000000000   1.0000000
N2   N   0.221315233244439   0.942630466488889   0.375000000000000   1.0000000
N2   N   0.555827091015322   0.944580212174269   0.375000000000000   1.0000000
N2   N   0.379284283868454   0.454049049464875   0.375000000000000   1.0000000
N2   N   0.888753121159059   0.944580212174269   0.375000000000000   1.0000000
N2   N   0.727625157451686   0.445410732115291   0.375000000000000   1.0000000
N2   N   0.222223770805982   0.611109562527312   0.875000000000000   1.0000000
N2   N   0.055549752086445   0.111109031045928   0.875000000000000   1.0000000
N2   N   0.555555032369100   0.611110064737890   0.875000000000000   1.0000000
N2   N   0.388894236531972   0.111118307539900   0.875000000000000   1.0000000
N2   N   0.888885791721280   0.611109562527312   0.875000000000000   1.0000000
N2   N   0.055722052464351   0.611444104928694   0.375000000000000   1.0000000
N2   N   0.722224031491241   0.111109301842140   0.875000000000000   1.0000000
N2   N   0.217785574663619   0.105708175881635   0.375000000000000   1.0000000
N2   N   0.387922601218038   0.615547758669797   0.375000000000000   1.0000000
N2   N   0.727625157451689   0.615547758669797   0.375000000000000   1.0000000
N2   N   0.555887634970368   0.110457887612920   0.375000000000000   1.0000000
N2   N   0.388894236531972   0.611109262325330   0.875000000000000   1.0000000
N2   N   0.888537346591635   0.110935339962438   0.375000000000000   1.0000000
N2   N   0.222223122015061   0.777778227674199   0.875000000000000   1.0000000
N2   N   0.055549752086445   0.277774054373836   0.875000000000000   1.0000000
N2   N   0.388898468802929   0.277796937605650   0.875000000000000   1.0000000
N2   N   0.555559278959448   0.777783581246828   0.875000000000000   1.0000000
N2   N   0.888888715214483   0.777779653205706   0.875000000000000   1.0000000
N2   N   0.722224302287459   0.277774054373836   0.875000000000000   1.0000000
N2   N   0.055722052464351   0.777611280869042   0.375000000000000   1.0000000
N2   N   0.388632613403734   0.779013073670692   0.375000000000000   1.0000000
N2   N   0.221176823474146   0.277255078403757   0.375000000000000   1.0000000
N2   N   0.722875445720272   0.778763080690845   0.375000000000000   1.0000000
N2   N   0.556078254929720   0.277255078403757   0.375000000000000   1.0000000
N2   N   0.888753121159059   0.277506242318002   0.375000000000000   1.0000000
N2   N   0.055553680127609   0.444442395342185   0.875000000000000   1.0000000
N2   N   0.222223770805982   0.944447541612049   0.875000000000000   1.0000000
N2   N   0.555556594748911   0.944444964041155   0.875000000000000   1.0000000
N2   N   0.388898468802929   0.444434864530399   0.875000000000000   1.0000000
N2   N   0.888888369292174   0.944444964041155   0.875000000000000   1.0000000
N2   N   0.054320259662538   0.942952873066325   0.375000000000000   1.0000000
N2   N   0.722215025793340   0.444439096801356   0.875000000000000   1.0000000
N2   N   0.388632613403734   0.942952873066325   0.375000000000000   1.0000000
N2   N   0.217785574663619   0.445410732115291   0.375000000000000   1.0000000
N2   N   0.221315233244439   0.612018100089051   0.375000000000000   1.0000000
N2   N   0.574764765596422   0.454049049464875   0.375000000000000   1.0000000
N2   N   0.722397993370668   0.944795986741693   0.375000000000000   1.0000000
N2   N   0.890380460267004   0.444700719929595   0.375000000000000   1.0000000
N2   N   0.055555105659119   0.611110211318117   0.875000000000000   1.0000000
N2   N   0.222224071007943   0.111118307539900   0.875000000000000   1.0000000
N2   N   0.722215025793340   0.611109262325330   0.875000000000000   1.0000000
N2   N   0.555559278959448   0.111109031045928   0.875000000000000   1.0000000
N2   N   0.888885270350936   0.111109301842140   0.875000000000000   1.0000000
B2   B   0.107695188820709   0.052546354000016   0.375000000000000   1.0000000
B2   B   0.619187500870381   0.563550540547094   0.375000000000000   1.0000000
B2   B   0.444851165179283   0.052546354000016   0.375000000000000   1.0000000
B2   B   0.945364894337428   0.555784920423019   0.375000000000000   1.0000000
B2   B   0.777777777777779   0.055555555555557   0.375000000000000   1.0000000
B2   B   0.111111111111114   0.722222222222221   0.875000000000000   1.0000000
B2   B   0.444455560308424   0.722254706445741   0.875000000000000   1.0000000
B2   B   0.277730777696038   0.222188585419001   0.875000000000000   1.0000000
B2   B   0.777799146137185   0.722254706445741   0.875000000000000   1.0000000
B2   B   0.611137013035693   0.222196320297611   0.875000000000000   1.0000000
B2   B   0.944423361943208   0.222210433444738   0.875000000000000   1.0000000
B2   B   0.277548412910291   0.722913307247770   0.375000000000000   1.0000000
B2   B   0.109198770334524   0.221266051833930   0.375000000000000   1.0000000
B2   B   0.444363039676683   0.214145832462866   0.375000000000000   1.0000000
B2   B   0.612067281499449   0.724134562998814   0.375000000000000   1.0000000
B2   B   0.945364894337428   0.722913307247770   0.375000000000000   1.0000000
B2   B   0.778016226568680   0.221652514339850   0.375000000000000   1.0000000
B2   B   0.111102672929740   0.888880395650974   0.875000000000000   1.0000000
B2   B   0.444453133657418   0.888893233495447   0.875000000000000   1.0000000
B2   B   0.277730777696037   0.388875525610467   0.875000000000000   1.0000000
B2   B   0.611144747914317   0.388875525610467   0.875000000000000   1.0000000
B2   B   0.777787071501586   0.888909971390121   0.875000000000000   1.0000000
B2   B   0.944440099837881   0.388880199675928   0.875000000000000   1.0000000
B2   B   0.107695188820710   0.388482168154046   0.375000000000000   1.0000000
B2   B   0.277548412910291   0.887968438995900   0.375000000000000   1.0000000
B2   B   0.611680818993325   0.889697045562345   0.375000000000000   1.0000000
B2   B   0.944229712756181   0.889103620577148   0.375000000000000   1.0000000
B2   B   0.780786979333154   0.388482168154046   0.375000000000000   1.0000000
B2   B   0.277765678038049   0.555567655295381   0.875000000000000   1.0000000
B2   B   0.111078626887568   0.055534187196040   0.875000000000000   1.0000000
B2   B   0.611144747914316   0.555602555637323   0.875000000000000   1.0000000
B2   B   0.444455560308420   0.055534187196040   0.875000000000000   1.0000000
B2   B   0.944452937682354   0.555555610612005   0.875000000000000   1.0000000
B2   B   0.110420026085658   0.555784920423019   0.375000000000000   1.0000000
B2   B   0.777777777777779   0.055555555555557   0.875000000000000   1.0000000
B2   B   0.276151328795134   0.052302657590298   0.375000000000000   1.0000000
B2   B   0.444363039676683   0.563550540547094   0.375000000000000   1.0000000
B2   B   0.781030675743068   0.557182004538161   0.375000000000000   1.0000000
B2   B   0.611680818993325   0.055317106764521   0.375000000000000   1.0000000
B2   B   0.444457807722859   0.555602555637323   0.875000000000000   1.0000000
B2   B   0.943636287770984   0.055317106764523   0.375000000000000   1.0000000
B2   B   0.277777722721315   0.722230660403456   0.875000000000000   1.0000000
B2   B   0.111059307261911   0.222196320297611   0.875000000000000   1.0000000
B2   B   0.444457807722859   0.222188585419012   0.875000000000000   1.0000000
B2   B   0.611137013035693   0.722274026071653   0.875000000000000   1.0000000
B2   B   0.944452937682355   0.722230660403456   0.875000000000000   1.0000000
B2   B   0.777787071501586   0.222210433444738   0.875000000000000   1.0000000
B2   B   0.111111111111114   0.722222222222221   0.375000000000000   1.0000000
B2   B   0.444851165179283   0.725638144512641   0.375000000000000   1.0000000
B2   B   0.269782792786124   0.214145832462864   0.375000000000000   1.0000000
B2   B   0.780786979333154   0.725638144512641   0.375000000000000   1.0000000
B2   B   0.612067281499449   0.221266051833930   0.375000000000000   1.0000000
B2   B   0.943636287770984   0.221652514339850   0.375000000000000   1.0000000
B2   B   0.111078626887567   0.388877773024904   0.875000000000000   1.0000000
B2   B   0.277777722721322   0.888880395650974   0.875000000000000   1.0000000
B2   B   0.611122899888694   0.888909971390121   0.875000000000000   1.0000000
B2   B   0.444444444444443   0.388888888888886   0.875000000000000   1.0000000
B2   B   0.944440099837877   0.888893233495447   0.875000000000000   1.0000000
B2   B   0.110420026085658   0.887968438995900   0.375000000000000   1.0000000
B2   B   0.777799146137187   0.388877773024909   0.875000000000000   1.0000000
B2   B   0.444873907820736   0.889103620577148   0.375000000000000   1.0000000
B2   B   0.269782792786124   0.388970293656645   0.375000000000000   1.0000000
B2   B   0.276151328795134   0.557182004538161   0.375000000000000   1.0000000
B2   B   0.619187500870381   0.388970293656645   0.375000000000000   1.0000000
B2   B   0.778016226568680   0.889697045562345   0.375000000000000   1.0000000
B2   B   0.944229712756181   0.388459425512593   0.375000000000000   1.0000000
B2   B   0.111102672929740   0.555555610612005   0.875000000000000   1.0000000
B2   B   0.277765678038055   0.055531356075992   0.875000000000000   1.0000000
B2   B   0.777801977257226   0.555567655295381   0.875000000000000   1.0000000
B2   B   0.611122899888693   0.055546261831695   0.875000000000000   1.0000000
B2   B   0.944423361943208   0.055546261831695   0.875000000000000   1.0000000
B2   B   0.055465018014673   0.111027830368710   0.125000693151606   1.0000000
B2   B   0.555656546729572   0.611313093459018   0.125226718140422   1.0000000
B2   B   0.388795880441588   0.110862201276792   0.124958342566425   1.0000000
B2   B   0.889035630699456   0.611184482016425   0.125187935589765   1.0000000
B2   B   0.722234702177425   0.111098631155947   0.125405536441157   1.0000000
B2   B   0.055573718393996   0.777759614939438   0.624531264256207   1.0000000
B2   B   0.388843425425955   0.777824362626884   0.624848626245225   1.0000000
B2   B   0.222020239874303   0.277676786603827   0.624773281859439   1.0000000
B2   B   0.722305502964695   0.777868315318862   0.624999306848249   1.0000000
B2   B   0.555656546729572   0.277676786603827   0.624773281859439   1.0000000
B2   B   0.888895939992357   0.277791879985128   0.624706659399250   1.0000000
B2   B   0.222185896545345   0.777759614939438   0.125468735743742   1.0000000
B2   B   0.055465018014672   0.277770520979304   0.125000693151606   1.0000000
B2   B   0.388664670918964   0.277329341837765   0.126885834217198   1.0000000
B2   B   0.555562812354031   0.777868315318862   0.125000693151606   1.0000000
B2   B   0.888980937200960   0.777824362626884   0.125151373754894   1.0000000
B2   B   0.722305502964695   0.277770520979304   0.125000693151606   1.0000000
B2   B   0.055508970706519   0.944352396132369   0.624848626245225   1.0000000
B2   B   0.388843425425955   0.944352396132369   0.624848626245225   1.0000000
B2   B   0.222066320835224   0.444537452891741   0.625041657433454   1.0000000
B2   B   0.556003991495401   0.444668662414365   0.623114165782765   1.0000000
B2   B   0.722234702177425   0.944469404354896   0.624594463558756   1.0000000
B2   B   0.888980937200960   0.444489907907374   0.624848626245225   1.0000000
B2   B   0.055508970706520   0.444489907907374   0.125151373754896   1.0000000
B2   B   0.222148851316975   0.944297702633873   0.125187935589765   1.0000000
B2   B   0.555541453348396   0.944437393340971   0.125293340600835   1.0000000
B2   B   0.388664670918964   0.444668662414365   0.126885834217198   1.0000000
B2   B   0.888895939992357   0.944437393340971   0.125293340600835   1.0000000
B2   B   0.722471132056518   0.444537452891741   0.124958342566427   1.0000000
B2   B   0.222148851316975   0.611184482016425   0.624812064410200   1.0000000
B2   B   0.055465018014670   0.111027830368710   0.624999306848249   1.0000000
B2   B   0.555656546729572   0.611313093459018   0.624773281859511   1.0000000
B2   B   0.388795880441588   0.110862201276792   0.625041657433454   1.0000000
B2   B   0.889035630699456   0.611184482016425   0.624812064410200   1.0000000
B2   B   0.055573718393992   0.611147436787955   0.125468735743738   1.0000000
B2   B   0.722234702177425   0.111098631155947   0.624594463558756   1.0000000
B2   B   0.222066320835224   0.110862201276793   0.124958342566427   1.0000000
B2   B   0.388795880441588   0.611267012498300   0.124958342566427   1.0000000
B2   B   0.722471132056518   0.611267012498300   0.124958342566427   1.0000000
B2   B   0.555562812354031   0.111027830368710   0.125000693151606   1.0000000
B2   B   0.388795880441588   0.611267012498300   0.625041657433454   1.0000000
B2   B   0.888863928978432   0.111098631155947   0.125405536441157   1.0000000
B2   B   0.222185896545345   0.777759614939438   0.624531264256207   1.0000000
B2   B   0.055465018014672   0.277770520979304   0.624999306848249   1.0000000
B2   B   0.388664670918964   0.277329341837765   0.623114165782765   1.0000000
B2   B   0.555562812354031   0.777868315318862   0.624999306848249   1.0000000
B2   B   0.888980937200960   0.777824362626884   0.624848626245225   1.0000000
B2   B   0.722305502964695   0.277770520979304   0.624999306848249   1.0000000
B2   B   0.055573718393996   0.777759614939438   0.125468735743742   1.0000000
B2   B   0.388843425425955   0.777824362626884   0.125151373754894   1.0000000
B2   B   0.222020239874303   0.277676786603827   0.125226718140422   1.0000000
B2   B   0.722305502964695   0.777868315318862   0.125000693151606   1.0000000
B2   B   0.555656546729572   0.277676786603827   0.125226718140422   1.0000000
B2   B   0.888895939992357   0.277791879985060   0.125293340600847   1.0000000
B2   B   0.055508970706519   0.444489907907374   0.624848626245225   1.0000000
B2   B   0.222148851316975   0.944297702633873   0.624812064410200   1.0000000
B2   B   0.555541453348396   0.944437393340971   0.624706659399250   1.0000000
B2   B   0.388664670918964   0.444668662414365   0.623114165782765   1.0000000
B2   B   0.888895939992357   0.944437393340971   0.624706659399224   1.0000000
B2   B   0.055508970706519   0.944352396132369   0.125151373754894   1.0000000
B2   B   0.722471132056518   0.444537452891741   0.625041657433454   1.0000000
B2   B   0.388843425425955   0.944352396132369   0.125151373754894   1.0000000
B2   B   0.222066320835224   0.444537452891741   0.124958342566434   1.0000000
B2   B   0.222148851316975   0.611184482016425   0.125187935589765   1.0000000
B2   B   0.556003991495401   0.444668662414365   0.126885834217198   1.0000000
B2   B   0.722234702177425   0.944469404354896   0.125405536441157   1.0000000
B2   B   0.888980937200960   0.444489907907374   0.125151373754894   1.0000000
B2   B   0.055573718393992   0.611147436787956   0.624531264256207   1.0000000
B2   B   0.222066320835224   0.110862201276792   0.625041657433454   1.0000000
B2   B   0.722471132056518   0.611267012498300   0.625041657433454   1.0000000
B2   B   0.555562812354031   0.111027830368710   0.624999306848249   1.0000000
B2   B   0.888863928978432   0.111098631155947   0.624594463558756   1.0000000


