data_1
_audit_creation_method   'vasp2cif'
_cell_length_a    17.52789999999977
_cell_length_b    17.52789999999977
_cell_length_c    15.0
_cell_angle_alpha    90.0
_cell_angle_beta    90.0
_cell_angle_gamma    119.99999999999916

_symmetry_space_group_name_H-M    'P 1'
loop_
_atom_site_label
_atom_site_type_symbol
_atom_site_fract_x
_atom_site_fract_y
_atom_site_fract_z
_atom_site_occupancy
Ga2   Ga   0.414638928387048   0.484844887335662   0.110752255451984   1.0000000
B2   B   0.908624316701201   0.955155532109748   0.110742497649081   1.0000000
B2   B   0.906726322605480   0.097298398271201   0.110969664125689   1.0000000
B2   B   0.905879067855866   0.240112872893793   0.110834789898589   1.0000000
B2   B   0.905296168250519   0.382848391291748   0.110728774365685   1.0000000
B2   B   0.904324829620391   0.525235735913285   0.110809563691325   1.0000000
B2   B   0.907610661086982   0.668060073045377   0.110812141648321   1.0000000
B2   B   0.909969537087434   0.812723610198955   0.110521426070972   1.0000000
B2   B   0.049633733084044   0.951761274521946   0.110855002068218   1.0000000
B2   B   0.047985248312223   0.094170138628269   0.110964492481438   1.0000000
B2   B   0.047713964228639   0.238302413911205   0.110676955054730   1.0000000
B2   B   0.047939419001265   0.381935491126279   0.110580898565256   1.0000000
B2   B   0.048026918849584   0.524669540817941   0.110655807648178   1.0000000
B2   B   0.049578124770713   0.666840707965555   0.110858438349017   1.0000000
B2   B   0.050091860479375   0.809233725936846   0.110818934713245   1.0000000
B2   B   0.191630938596106   0.949742918997741   0.110773471629136   1.0000000
B2   B   0.189026907226994   0.090201741674510   0.110880805647628   1.0000000
B2   B   0.186866859816415   0.232605019127730   0.110454020067207   1.0000000
B2   B   0.189549820282185   0.379840347060892   0.110278305414386   1.0000000
B2   B   0.190736974865944   0.524328903836432   0.110685041603913   1.0000000
B2   B   0.192744745803548   0.666673720999143   0.110775986226779   1.0000000
B2   B   0.192604079806584   0.808376478819611   0.110739338872264   1.0000000
B2   B   0.335035876552796   0.949920250365636   0.110704875663980   1.0000000
B2   B   0.333134730870222   0.089523692695419   0.110916127061526   1.0000000
B2   B   0.327450865421245   0.224948852799821   0.110495486680125   1.0000000
B2   B   0.323806738045356   0.363939679336259   0.109838240373411   1.0000000
B2   B   0.331448860138358   0.529546647161403   0.111143681293215   1.0000000
B2   B   0.336978812662867   0.668935017341123   0.111185558209420   1.0000000
B2   B   0.336172152504230   0.809268290019705   0.110722844893349   1.0000000
B2   B   0.478863623982118   0.951386891077940   0.110699507341085   1.0000000
B2   B   0.477638880908272   0.092461450545429   0.110779627093249   1.0000000
B2   B   0.475756437659695   0.231013215576031   0.110928315986232   1.0000000
B2   B   0.460374504001385   0.348168085724105   0.110282274163993   1.0000000
B2   B   0.483729149995240   0.665757823869986   0.111576266704038   1.0000000
B2   B   0.480484483251348   0.809258317955905   0.110894862085810   1.0000000
B2   B   0.622355571427510   0.954844575495528   0.110734975572528   1.0000000
B2   B   0.621241443729193   0.096769971508568   0.110697090482053   1.0000000
B2   B   0.620697622183300   0.239739351154589   0.110814113995525   1.0000000
B2   B   0.620367236750991   0.384966319509499   0.111144291648105   1.0000000
B2   B   0.619318103794788   0.538848334948448   0.111238634017184   1.0000000
B2   B   0.633465308188256   0.679232097934830   0.110042007503787   1.0000000
B2   B   0.624766018634224   0.814237592886918   0.110411957154711   1.0000000
B2   B   0.765763593262064   0.956152469711721   0.110593569275449   1.0000000
B2   B   0.764172431713444   0.097940028075759   0.110840920239315   1.0000000
B2   B   0.763355281786794   0.240541516292934   0.110749089674003   1.0000000
B2   B   0.762376224053517   0.383539453302868   0.110878854790403   1.0000000
B2   B   0.759513921395583   0.526699979710565   0.110958833309645   1.0000000
B2   B   0.770780988212699   0.673895463059195   0.110014609067097   1.0000000
B2   B   0.769628087826450   0.816257387804998   0.109887269894522   1.0000000
N2   N   0.955843690413798   0.906968864791052   0.110746382165949   1.0000000
N2   N   0.954308148908090   0.049443841139758   0.111010011525510   1.0000000
N2   N   0.953499587297831   0.192293052676842   0.110887161926180   1.0000000
N2   N   0.953170587493704   0.335181034331299   0.110706404018797   1.0000000
N2   N   0.952524630505875   0.477724641412133   0.110676209096687   1.0000000
N2   N   0.954265627921317   0.619974288220600   0.110878709902288   1.0000000
N2   N   0.955484256995797   0.763082715139661   0.110758197586725   1.0000000
N2   N   0.097166597892167   0.904006486043644   0.110759148482211   1.0000000
N2   N   0.095505300800290   0.046144764450949   0.110944319532482   1.0000000
N2   N   0.093994902812126   0.188850541551109   0.110740278134264   1.0000000
N2   N   0.095501946434567   0.333742782606890   0.110424645408527   1.0000000
N2   N   0.096011867933953   0.477023002926350   0.110562306785511   1.0000000
N2   N   0.097383867287879   0.619436942030216   0.110729875998266   1.0000000
N2   N   0.097620547419185   0.761616675171992   0.110841101938182   1.0000000
N2   N   0.240087147926421   0.903149211455667   0.110670049518008   1.0000000
N2   N   0.238529429731050   0.044488370680201   0.110869955754339   1.0000000
N2   N   0.234785873904873   0.184605677568844   0.110658711039571   1.0000000
N2   N   0.233309460415180   0.327737465825243   0.109966592000129   1.0000000
N2   N   0.238434321405980   0.475792363280499   0.110555329419695   1.0000000
N2   N   0.241195576982745   0.619406035778855   0.110861467052604   1.0000000
N2   N   0.240904841005326   0.761428105519738   0.110707650311246   1.0000000
N2   N   0.383669780403233   0.903815985390621   0.110641312717174   1.0000000
N2   N   0.382486136907038   0.044719678583212   0.110799027151823   1.0000000
N2   N   0.380441916575827   0.184269330184234   0.110901979360545   1.0000000
N2   N   0.373339386410586   0.320073554760753   0.109764796272140   1.0000000
N2   N   0.386480114528867   0.622381773045104   0.111673168107230   1.0000000
N2   N   0.384951380307480   0.762770850411727   0.110901874111834   1.0000000
N2   N   0.527128446142549   0.904549995989261   0.110733223820428   1.0000000
N2   N   0.526058833150160   0.046716376373317   0.110663157354415   1.0000000
N2   N   0.525243112917357   0.187941962548138   0.110831259924339   1.0000000
N2   N   0.524579858347245   0.328302810630255   0.110937297896592   1.0000000
N2   N   0.531844985270539   0.532147888410692   0.112647051247635   1.0000000
N2   N   0.540756026328160   0.623964913278036   0.111504863252657   1.0000000
N2   N   0.529245773515108   0.761583555263234   0.110983073165000   1.0000000
N2   N   0.670691083055362   0.908614437425489   0.110570323179779   1.0000000
N2   N   0.669135352852452   0.049930139252677   0.110754697652221   1.0000000
N2   N   0.668161799786228   0.192484159872925   0.110677319990314   1.0000000
N2   N   0.666799585508726   0.336103945730676   0.110944245597861   1.0000000
N2   N   0.660622563944726   0.480417675708945   0.111297083064237   1.0000000
N2   N   0.678340335566641   0.630873114465696   0.109740279693388   1.0000000
N2   N   0.675671992081813   0.771312631100419   0.109634860846700   1.0000000
N2   N   0.814653273444944   0.909924364710098   0.110375081052245   1.0000000
N2   N   0.812138412812256   0.050805734680807   0.110853759945194   1.0000000
N2   N   0.811024722789214   0.193047729943111   0.110808060733616   1.0000000
N2   N   0.810026773336696   0.335770537517660   0.110745413798046   1.0000000
N2   N   0.807859589121666   0.478517181673515   0.110887806728120   1.0000000
N2   N   0.812573774078213   0.621643245434242   0.110640774745000   1.0000000
N2   N   0.816321385569333   0.767866883774194   0.109939335785502   1.0000000


