data_1
_audit_creation_method   'vasp2cif'
_cell_length_a    17.52789999999977
_cell_length_b    17.52789999999977
_cell_length_c    15.0
_cell_angle_alpha    90.0
_cell_angle_beta    90.0
_cell_angle_gamma    119.99999999999916

_symmetry_space_group_name_H-M    'P 1'
loop_
_atom_site_label
_atom_site_type_symbol
_atom_site_fract_x
_atom_site_fract_y
_atom_site_fract_z
_atom_site_occupancy
B2   B   0.904721166781015   0.952318176668936   0.111001217526759   1.0000000
B2   B   0.904802484418397   0.095199284452605   0.111043741824333   1.0000000
B2   B   0.904821081562466   0.238056099819785   0.111048977747618   1.0000000
B2   B   0.904833564760358   0.380907370071383   0.110987850756655   1.0000000
B2   B   0.905014946528672   0.523790485577892   0.110994183351963   1.0000000
B2   B   0.905106128732163   0.666781286189326   0.111079005056040   1.0000000
B2   B   0.905205312083156   0.809911848157873   0.111066236815043   1.0000000
B2   B   0.047631958026475   0.952369764129525   0.110993731439593   1.0000000
B2   B   0.047683529098062   0.095280535410987   0.111001218716761   1.0000000
B2   B   0.047707062535385   0.238104973748684   0.110987239520753   1.0000000
B2   B   0.047667579863426   0.380929747118546   0.111004564215813   1.0000000
B2   B   0.047687649263283   0.523795455061361   0.111000258810572   1.0000000
B2   B   0.047708234837504   0.666694691016575   0.111010165771392   1.0000000
B2   B   0.047748813755268   0.809579613677538   0.110980902734045   1.0000000
B2   B   0.190422129342455   0.952252938283737   0.110980899198043   1.0000000
B2   B   0.190089862152129   0.094796431373843   0.111066234754043   1.0000000
B2   B   0.190781634096178   0.238273268822133   0.111008093143648   1.0000000
B2   B   0.190542896007426   0.381084374572792   0.110996559688056   1.0000000
B2   B   0.190416679982814   0.523854098112616   0.111089030346156   1.0000000
B2   B   0.190331371915682   0.666734259528693   0.111091732463365   1.0000000
B2   B   0.190460826552316   0.809540809785682   0.110991548199500   1.0000000
B2   B   0.333306976445427   0.952293406521495   0.111010162888393   1.0000000
B2   B   0.333220465657676   0.094895611016832   0.111079004052043   1.0000000
B2   B   0.332319529626976   0.236850014465773   0.111096756527718   1.0000000
B2   B   0.334227794597192   0.381156394542529   0.111009373464012   1.0000000
B2   B   0.332977415867456   0.524541899819904   0.111060021704272   1.0000000
B2   B   0.332957024254093   0.667044798357906   0.111163412387287   1.0000000
B2   B   0.333267392497300   0.809670312671316   0.111091730681366   1.0000000
B2   B   0.476206188854639   0.952313942187720   0.111000264106574   1.0000000
B2   B   0.476211234843105   0.094986722696328   0.110994197371966   1.0000000
B2   B   0.476092389279516   0.237454841773202   0.111038361265209   1.0000000
B2   B   0.474347354147645   0.378365237063156   0.110851567303830   1.0000000
B2   B   0.475459829169094   0.667024346383540   0.111060021375269   1.0000000
B2   B   0.476147688898386   0.809585149846182   0.111089030321152   1.0000000
B2   B   0.619071997771454   0.952334147860572   0.111004566948816   1.0000000
B2   B   0.619094287965617   0.095168049145643   0.110987857974654   1.0000000
B2   B   0.619080615063557   0.238000126625742   0.111012665958416   1.0000000
B2   B   0.619040594363174   0.380961204915824   0.110943997825495   1.0000000
B2   B   0.621636497001846   0.525654281563356   0.110851567129825   1.0000000
B2   B   0.618845263083471   0.665773803336803   0.111009371050014   1.0000000
B2   B   0.618917350157206   0.809458867605574   0.110996557853058   1.0000000
B2   B   0.761896748853309   0.952294685714615   0.110987241874753   1.0000000
B2   B   0.761945601083215   0.095180607445536   0.111048977251617   1.0000000
B2   B   0.761960440265044   0.238041182965956   0.111060168367117   1.0000000
B2   B   0.762001605754265   0.380921109563440   0.111012659381420   1.0000000
B2   B   0.762547027321799   0.523909382705489   0.111038354031209   1.0000000
B2   B   0.763151774612226   0.667682162930023   0.111096758086713   1.0000000
B2   B   0.761728386846862   0.809220029605823   0.111008094163653   1.0000000
C2   C   0.473916688811026   0.526084849931974   0.111589864866361   1.0000000
C2   C   0.522178538984401   0.477823214887591   0.110871278599360   1.0000000
N2   N   0.952534678651121   0.904989826325557   0.110998575578158   1.0000000
N2   N   0.952381069976062   0.047620650152937   0.110993463777860   1.0000000
N2   N   0.952497241126627   0.190468130653026   0.111016975892414   1.0000000
N2   N   0.952515951732017   0.333287699365638   0.110990831387708   1.0000000
N2   N   0.952612342065315   0.476129566236001   0.110934126448436   1.0000000
N2   N   0.952656675001988   0.619077477760278   0.111005895234472   1.0000000
N2   N   0.952664980892609   0.762102715749474   0.111034455527321   1.0000000
N2   N   0.095248834961096   0.904752930611908   0.110939488267334   1.0000000
N2   N   0.095011888593444   0.047467047841876   0.110998586085160   1.0000000
N2   N   0.095506955436689   0.190746258748539   0.110961675537129   1.0000000
N2   N   0.095459947950504   0.333418491849024   0.110969222789651   1.0000000
N2   N   0.095374252996769   0.476161138814025   0.111012003653005   1.0000000
N2   N   0.095280769070923   0.619016340387240   0.111013427653611   1.0000000
N2   N   0.095338776291349   0.761923037364027   0.110959663358027   1.0000000
N2   N   0.238078630262969   0.904662876087650   0.110959662435025   1.0000000
N2   N   0.237899027422526   0.047336796462386   0.111034445320317   1.0000000
N2   N   0.237301546162975   0.189777328479528   0.111063033356573   1.0000000
N2   N   0.239075498829535   0.334318474696192   0.110975466914695   1.0000000
N2   N   0.238233639090851   0.476282688282654   0.111026184087397   1.0000000
N2   N   0.237938422474019   0.619086145884017   0.111114308105978   1.0000000
N2   N   0.238088128370705   0.761913521072295   0.111047233642961   1.0000000
N2   N   0.380985303203759   0.904720854148077   0.111013418369610   1.0000000
N2   N   0.380924227553720   0.047344955850017   0.111005900794476   1.0000000
N2   N   0.380649290061253   0.189846674408148   0.111082160216737   1.0000000
N2   N   0.379112025178300   0.331139578541185   0.111010459632391   1.0000000
N2   N   0.382685854245091   0.478687611910926   0.111064186666748   1.0000000
N2   N   0.380532946927229   0.619468807907768   0.111122248933258   1.0000000
N2   N   0.380915652888981   0.762063436380981   0.111114314987975   1.0000000
N2   N   0.523840637502982   0.904627550066231   0.111012008921005   1.0000000
N2   N   0.523872090584998   0.047389202040683   0.110934144445432   1.0000000
N2   N   0.523826155340508   0.190025214121967   0.111006021744477   1.0000000
N2   N   0.523502865021081   0.332347613546711   0.110913052199231   1.0000000
N2   N   0.521313934863076   0.617315645717908   0.111064190199744   1.0000000
N2   N   0.523719048019349   0.761768173992152   0.111026179060399   1.0000000
N2   N   0.666583263376971   0.904541836205501   0.110969221494651   1.0000000
N2   N   0.666714013124359   0.047485722649982   0.110990834098706   1.0000000
N2   N   0.666750027256857   0.190353080279057   0.111016087183346   1.0000000
N2   N   0.666709523964449   0.333292234204550   0.110983060575930   1.0000000
N2   N   0.667654321420291   0.476498910005921   0.110913047356229   1.0000000
N2   N   0.668862216647815   0.620889622971704   0.111010460940394   1.0000000
N2   N   0.665683128682806   0.760926151032472   0.110975462129694   1.0000000
N2   N   0.809255424509460   0.904494752650309   0.110961677210130   1.0000000
N2   N   0.809533639181976   0.047504542035378   0.111016979358413   1.0000000
N2   N   0.809614787541635   0.190386869889365   0.111051599749984   1.0000000
N2   N   0.809648548044944   0.333251616004144   0.111016081667346   1.0000000
N2   N   0.809976510919035   0.476175562694494   0.111006002415476   1.0000000
N2   N   0.810155159140852   0.619352460984746   0.111082159586735   1.0000000
N2   N   0.810224399364473   0.762700147500027   0.111063038108569   1.0000000


