data_1
_audit_creation_method   'vasp2cif'
_cell_length_a    14.93631414619966
_cell_length_b    14.936314146199727
_cell_length_c    13.341276283792837
_cell_angle_alpha    90.0
_cell_angle_beta    90.0
_cell_angle_gamma    119.99999999999984

_symmetry_space_group_name_H-M    'P 1'
loop_
_atom_site_label
_atom_site_type_symbol
_atom_site_fract_x
_atom_site_fract_y
_atom_site_fract_z
_atom_site_occupancy
Ga2   Ga   0.490922524825971   0.412127929079650   0.375000000000000   1.0000000
N2   N   0.111142603710572   0.055577862444319   0.124900244730716   1.0000000
N2   N   0.611245680387484   0.555721367075147   0.123035845693424   1.0000000
N2   N   0.444502861569041   0.055571176148949   0.124886720814653   1.0000000
N2   N   0.944461708218667   0.555552811281626   0.124949837027377   1.0000000
N2   N   0.777840298677287   0.055586816005312   0.124849524497790   1.0000000
N2   N   0.111128130151309   0.722230731742319   0.625105462690847   1.0000000
N2   N   0.444502861569041   0.722265018753427   0.625113279185348   1.0000000
N2   N   0.277800399622684   0.222229548396049   0.625154131522257   1.0000000
N2   N   0.777831850250148   0.722291963092442   0.625278681409542   1.0000000
N2   N   0.611183291261924   0.222207847146410   0.625386519753974   1.0000000
N2   N   0.944491836232943   0.222235977038941   0.625118115397235   1.0000000
N2   N   0.277813990218833   0.722238398917845   0.124901101669284   1.0000000
N2   N   0.111145435401776   0.222239384367552   0.124908894267579   1.0000000
N2   N   0.444523421978069   0.222239566195577   0.124647569575442   1.0000000
N2   N   0.611183291261924   0.722308777448843   0.124613480246026   1.0000000
N2   N   0.944461708218667   0.722242230270375   0.124949837027377   1.0000000
N2   N   0.777838284793063   0.222217737562817   0.124882832302787   1.0000000
N2   N   0.111136584601463   0.888911496011975   0.625100240556005   1.0000000
N2   N   0.444495217491197   0.888914275412262   0.625111951277152   1.0000000
N2   N   0.277800399622684   0.388904184559963   0.625154131522257   1.0000000
N2   N   0.611245680387484   0.388857646645666   0.626964154306576   1.0000000
N2   N   0.777838284793063   0.888953880563574   0.625117167697213   1.0000000
N2   N   0.944482287027095   0.388886578535712   0.625050031077591   1.0000000
N2   N   0.111142603710572   0.388898074599582   0.124900244730716   1.0000000
N2   N   0.277813990218833   0.888908924634316   0.124901101669284   1.0000000
N2   N   0.611172386471365   0.888938878883319   0.124892313300998   1.0000000
N2   N   0.444449800590931   0.388891566962130   0.124851104291486   1.0000000
N2   N   0.944482287027095   0.888929041824711   0.124949968922408   1.0000000
N2   N   0.777831850250148   0.388873220491034   0.124721318590458   1.0000000
N2   N   0.277826053850162   0.555576733098104   0.625063055143579   1.0000000
N2   N   0.111142603710572   0.055577862444319   0.625099755269285   1.0000000
N2   N   0.611245680387484   0.555721367075147   0.626964154306576   1.0000000
N2   N   0.444502861569041   0.055571176148949   0.625113279185348   1.0000000
N2   N   0.944461708218667   0.555552811281626   0.625050162972622   1.0000000
N2   N   0.111136584601463   0.555558421922817   0.124899759443995   1.0000000
N2   N   0.777840298677287   0.055586816005312   0.625150475502210   1.0000000
N2   N   0.277826053850162   0.055582654085393   0.124936944856420   1.0000000
N2   N   0.444523421978069   0.555617189115828   0.124647569575442   1.0000000
N2   N   0.777813877156268   0.555573605244803   0.124522402745682   1.0000000
N2   N   0.611172386471365   0.055566840921375   0.124892313300998   1.0000000
N2   N   0.444523421978069   0.555617189115828   0.625352430424557   1.0000000
N2   N   0.944491836232943   0.055589192527336   0.124881884602766   1.0000000
N2   N   0.277813990218833   0.722238398917845   0.625098898330716   1.0000000
N2   N   0.111145435401776   0.222239384367552   0.625091105732422   1.0000000
N2   N   0.444523421978069   0.222239566195577   0.625352430424557   1.0000000
N2   N   0.611183291261924   0.722308777448843   0.625386519753974   1.0000000
N2   N   0.944461708218667   0.722242230270375   0.625050162972622   1.0000000
N2   N   0.777838284793063   0.222217737562817   0.625117167697213   1.0000000
N2   N   0.111128130151309   0.722230731742319   0.124894537309154   1.0000000
N2   N   0.444502861569041   0.722265018753427   0.124886720814653   1.0000000
N2   N   0.277800399622684   0.222229548396049   0.124845868477744   1.0000000
N2   N   0.777831850250148   0.722291963092442   0.124721318590458   1.0000000
N2   N   0.611183291261924   0.222207847146410   0.124613480246026   1.0000000
N2   N   0.944491836232943   0.222235977038941   0.124881884602766   1.0000000
N2   N   0.111142603710572   0.388898074599582   0.625099755269285   1.0000000
N2   N   0.277813990218833   0.888908924634316   0.625098898330716   1.0000000
N2   N   0.611172386471365   0.888938878883319   0.625107686699002   1.0000000
N2   N   0.444449800590931   0.388891566962130   0.625148895708515   1.0000000
N2   N   0.944482287027095   0.888929041824711   0.625050031077591   1.0000000
N2   N   0.111136584601463   0.888911496011975   0.124899759443995   1.0000000
N2   N   0.777831850250148   0.388873220491034   0.625278681409542   1.0000000
N2   N   0.444495217491197   0.888914275412262   0.124888048722847   1.0000000
N2   N   0.277800399622684   0.388904184559963   0.124845868477744   1.0000000
N2   N   0.277826053850162   0.555576733098104   0.124936944856420   1.0000000
N2   N   0.611245680387484   0.388857646645666   0.123035845693424   1.0000000
N2   N   0.777838284793063   0.888953880563574   0.124882832302787   1.0000000
N2   N   0.944482287027095   0.388886578535712   0.124949968922408   1.0000000
N2   N   0.111136584601463   0.555558421922817   0.625100240556005   1.0000000
N2   N   0.277826053850162   0.055582654085393   0.625063055143579   1.0000000
N2   N   0.777813877156268   0.555573605244803   0.625477597254319   1.0000000
N2   N   0.611172386471365   0.055566840921375   0.625107686699002   1.0000000
N2   N   0.944491836232943   0.055589192527336   0.625118115397235   1.0000000
N2   N   0.058426882600931   0.112644546600887   0.375000000000000   1.0000000
N2   N   0.556055643976319   0.618373559850996   0.375000000000000   1.0000000
N2   N   0.388412045537538   0.105544656337784   0.375000000000000   1.0000000
N2   N   0.887505996442172   0.610419664887759   0.375000000000000   1.0000000
N2   N   0.724376769755295   0.111522299959234   0.375000000000000   1.0000000
N2   N   0.055551778183357   0.777775154040680   0.875000000000000   1.0000000
N2   N   0.388875202011864   0.777774632462999   0.875000000000000   1.0000000
N2   N   0.222215133710468   0.277774233521902   0.875000000000000   1.0000000
N2   N   0.722213133785024   0.777769809335367   0.875000000000000   1.0000000
N2   N   0.555539373407410   0.277764070868062   0.875000000000000   1.0000000
N2   N   0.888882723178888   0.277778656826509   0.875000000000000   1.0000000
N2   N   0.221305956960546   0.777319645146941   0.375000000000000   1.0000000
N2   N   0.058426882600931   0.279115669333380   0.375000000000000   1.0000000
N2   N   0.390480176982544   0.270037172622050   0.375000000000000   1.0000000
N2   N   0.556512467212903   0.781463753050478   0.375000000000000   1.0000000
N2   N   0.889034903827029   0.778089636627857   0.375000000000000   1.0000000
N2   N   0.723921850388301   0.276979508189047   0.375000000000000   1.0000000
N2   N   0.055547427880965   0.944436642180491   0.875000000000000   1.0000000
N2   N   0.388875202011864   0.944433902882199   0.875000000000000   1.0000000
N2   N   0.222211516595735   0.444443769022283   0.875000000000000   1.0000000
N2   N   0.555539950650457   0.444436641991893   0.875000000000000   1.0000000
N2   N   0.722209151439681   0.944436620697221   0.875000000000000   1.0000000
N2   N   0.888887902654850   0.444446399304296   0.875000000000000   1.0000000
N2   N   0.056164671427847   0.445102801682503   0.375000000000000   1.0000000
N2   N   0.221477602139732   0.942696634620833   0.375000000000000   1.0000000
N2   N   0.556618772546580   0.944976052939953   0.375000000000000   1.0000000
N2   N   0.390480176982544   0.453776337693831   0.375000000000000   1.0000000
N2   N   0.891058128807273   0.946032028964273   0.375000000000000   1.0000000
N2   N   0.721399135947280   0.443142863269302   0.375000000000000   1.0000000
N2   N   0.222210014078688   0.611109198423720   0.875000000000000   1.0000000
N2   N   0.055547857017858   0.111104712937481   0.875000000000000   1.0000000
N2   N   0.555539373407410   0.611108635872682   0.875000000000000   1.0000000
N2   N   0.388875154266480   0.111096786175986   0.875000000000000   1.0000000
N2   N   0.888896329620973   0.611114831477158   0.875000000000000   1.0000000
N2   N   0.054626870214286   0.610946756735042   0.375000000000000   1.0000000
N2   N   0.722209151439681   0.111105864075796   0.875000000000000   1.0000000
N2   N   0.223224756953583   0.110135477881722   0.375000000000000   1.0000000
N2   N   0.388412045537538   0.616200722533097   0.375000000000000   1.0000000
N2   N   0.721399135947280   0.611589606011313   0.375000000000000   1.0000000
N2   N   0.556512467212903   0.108382047495761   0.375000000000000   1.0000000
N2   N   0.388875154266480   0.611111701423838   0.875000000000000   1.0000000
N2   N   0.891608507126814   0.112470920230078   0.375000000000000   1.0000000
N2   N   0.222211887334668   0.777772610334001   0.875000000000000   1.0000000
N2   N   0.055547857017858   0.277776477413713   0.875000000000000   1.0000000
N2   N   0.388880557201126   0.277768926779047   0.875000000000000   1.0000000
N2   N   0.555539960327480   0.777773021122630   0.875000000000000   1.0000000
N2   N   0.888887902654850   0.777774836683891   0.875000000000000   1.0000000
N2   N   0.722213133785024   0.277776657782993   0.875000000000000   1.0000000
N2   N   0.054626870214286   0.777013446812580   0.375000000000000   1.0000000
N2   N   0.388626932343112   0.779299149888622   0.375000000000000   1.0000000
N2   N   0.226588954359437   0.279961143846386   0.375000000000000   1.0000000
N2   N   0.723921850388301   0.780275675532589   0.375000000000000   1.0000000
N2   N   0.556055643976319   0.271015417458658   0.375000000000000   1.0000000
N2   N   0.891058128807273   0.278359433176335   0.375000000000000   1.0000000
N2   N   0.055547427880965   0.444444119033802   0.875000000000000   1.0000000
N2   N   0.222210014078688   0.944434148988304   0.875000000000000   1.0000000
N2   N   0.555539053029993   0.944436193181661   0.875000000000000   1.0000000
N2   N   0.388880557201126   0.444444963755415   0.875000000000000   1.0000000
N2   N   0.888882723178888   0.944437399685715   0.875000000000000   1.0000000
N2   N   0.056164671427847   0.944395203078672   0.375000000000000   1.0000000
N2   N   0.722225312231956   0.444449277949405   0.875000000000000   1.0000000
N2   N   0.388626932343112   0.942661115787826   0.375000000000000   1.0000000
N2   N   0.223224756953583   0.446422612405197   0.375000000000000   1.0000000
N2   N   0.221477602139732   0.612114300852234   0.375000000000000   1.0000000
N2   N   0.724376769755295   0.946187803129397   0.375000000000000   1.0000000
N2   N   0.889034903827029   0.444278600532507   0.375000000000000   1.0000000
N2   N   0.055551778183357   0.611109957476013   0.875000000000000   1.0000000
N2   N   0.222211516595735   0.111101080906788   0.875000000000000   1.0000000
N2   N   0.722225312231956   0.611109367615887   0.875000000000000   1.0000000
N2   N   0.555539960327480   0.111100272538186   0.875000000000000   1.0000000
N2   N   0.888881422963682   0.111107378148513   0.875000000000000   1.0000000
B2   B   0.112930352957913   0.055904547940784   0.375000000000000   1.0000000
B2   B   0.610134798886206   0.561518776355142   0.375000000000000   1.0000000
B2   B   0.445111250036644   0.052795390177726   0.375000000000000   1.0000000
B2   B   0.943433827388611   0.555293754199103   0.375000000000000   1.0000000
B2   B   0.780457205767579   0.056895269550457   0.375000000000000   1.0000000
B2   B   0.111099555650741   0.722216444492035   0.875000000000000   1.0000000
B2   B   0.444429380861544   0.722186296162334   0.875000000000000   1.0000000
B2   B   0.277820497498812   0.222255031868535   0.875000000000000   1.0000000
B2   B   0.777734245981461   0.722164645608774   0.875000000000000   1.0000000
B2   B   0.611072989228592   0.222249609120181   0.875000000000000   1.0000000
B2   B   0.944452291049734   0.222232779153360   0.875000000000000   1.0000000
B2   B   0.277453854708408   0.722791686467273   0.375000000000000   1.0000000
B2   B   0.115728127535042   0.224530730434185   0.375000000000000   1.0000000
B2   B   0.444048875771619   0.215761615003039   0.375000000000000   1.0000000
B2   B   0.612556264364567   0.726951779024642   0.375000000000000   1.0000000
B2   B   0.943433827388611   0.721473406522844   0.375000000000000   1.0000000
B2   B   0.779978308859888   0.222564450067251   0.375000000000000   1.0000000
B2   B   0.111110287976544   0.888891770996376   0.875000000000000   1.0000000
B2   B   0.444425185403100   0.888879259368214   0.875000000000000   1.0000000
B2   B   0.277820497498812   0.388898798963605   0.875000000000000   1.0000000
B2   B   0.611067000725293   0.388899940689350   0.875000000000000   1.0000000
B2   B   0.777752132559986   0.888848399586160   0.875000000000000   1.0000000
B2   B   0.944434561664967   0.388897643685324   0.875000000000000   1.0000000
B2   B   0.112930352957913   0.390359138350457   0.375000000000000   1.0000000
B2   B   0.277453854708408   0.887995501574464   0.375000000000000   1.0000000
B2   B   0.613019864982730   0.891139901062456   0.375000000000000   1.0000000
B2   B   0.945294390225374   0.889264185092362   0.375000000000000   1.0000000
B2   B   0.777732142117618   0.388377770755201   0.375000000000000   1.0000000
B2   B   0.277791531114526   0.555541887269487   0.875000000000000   1.0000000
B2   B   0.111134434680987   0.055570974114732   0.875000000000000   1.0000000
B2   B   0.611067000725293   0.555500393369271   0.875000000000000   1.0000000
B2   B   0.444429380861544   0.055576418032546   0.875000000000000   1.0000000
B2   B   0.944419574642966   0.555550734372558   0.875000000000000   1.0000000
B2   B   0.110721586976247   0.556020020944359   0.375000000000000   1.0000000
B2   B   0.777761028544424   0.055547180938880   0.875000000000000   1.0000000
B2   B   0.277820795014721   0.053697708240269   0.375000000000000   1.0000000
B2   B   0.444048875771619   0.561620594101916   0.375000000000000   1.0000000
B2   B   0.775488082625054   0.554410707979195   0.375000000000000   1.0000000
B2   B   0.613019864982730   0.055213297253602   0.375000000000000   1.0000000
B2   B   0.444447096425801   0.555522653649224   0.875000000000000   1.0000000
B2   B   0.947491125571261   0.057267603423452   0.375000000000000   1.0000000
B2   B   0.277771756863324   0.722209399222640   0.875000000000000   1.0000000
B2   B   0.111150562556501   0.222241947944915   0.875000000000000   1.0000000
B2   B   0.444447096425801   0.222257776109913   0.875000000000000   1.0000000
B2   B   0.611072989228592   0.722156713441740   0.875000000000000   1.0000000
B2   B   0.944419574642966   0.722202173603744   0.875000000000000   1.0000000
B2   B   0.777752132559986   0.222237066307155   0.875000000000000   1.0000000
B2   B   0.110247165456423   0.721790249394875   0.375000000000000   1.0000000
B2   B   0.445111250036644   0.725649193192255   0.375000000000000   1.0000000
B2   B   0.282242885356403   0.222835063980458   0.375000000000000   1.0000000
B2   B   0.777732142117618   0.722687704695745   0.375000000000000   1.0000000
B2   B   0.612556264364567   0.218937818673255   0.375000000000000   1.0000000
B2   B   0.947491125571261   0.223556855481145   0.375000000000000   1.0000000
B2   B   0.111134434680987   0.388896793899584   0.875000000000000   1.0000000
B2   B   0.277771756863324   0.888895690974013   0.875000000000000   1.0000000
B2   B   0.611082666519618   0.888856890166969   0.875000000000000   1.0000000
B2   B   0.444466073170526   0.388899703251927   0.875000000000000   1.0000000
B2   B   0.944434561664967   0.888870251312973   0.875000000000000   1.0000000
B2   B   0.110721586976247   0.888034899365217   0.375000000000000   1.0000000
B2   B   0.777734245981461   0.388902933706017   0.875000000000000   1.0000000
B2   B   0.445189775046752   0.889261554190041   0.375000000000000   1.0000000
B2   B   0.282242885356403   0.392741154709273   0.375000000000000   1.0000000
B2   B   0.277820795014721   0.557456420107787   0.375000000000000   1.0000000
B2   B   0.610134798886206   0.381949355864392   0.375000000000000   1.0000000
B2   B   0.779978308859888   0.890747192125966   0.375000000000000   1.0000000
B2   B   0.945294390225374   0.389363538466341   0.375000000000000   1.0000000
B2   B   0.111110287976544   0.555551850313496   0.875000000000000   1.0000000
B2   B   0.277791531114526   0.055582977178375   0.875000000000000   1.0000000
B2   B   0.777729593525654   0.555531463429494   0.875000000000000   1.0000000
B2   B   0.611082666519618   0.055559109685978   0.875000000000000   1.0000000
B2   B   0.944452291049734   0.055552845229710   0.875000000000000   1.0000000
B2   B   0.055661581929925   0.111193409093334   0.125136390909648   1.0000000
B2   B   0.555632550037649   0.611030817728928   0.124677340615205   1.0000000
B2   B   0.389014250155326   0.111302889395898   0.125219713219558   1.0000000
B2   B   0.888757761257519   0.611045547295431   0.125110339711631   1.0000000
B2   B   0.722266052859612   0.111139043809567   0.125055386850035   1.0000000
B2   B   0.055537001789498   0.777792694945341   0.624913186120222   1.0000000
B2   B   0.388969158131204   0.777769920179567   0.624913926679443   1.0000000
B2   B   0.222391735755230   0.277862534544283   0.624644775926800   1.0000000
B2   B   0.722208559794554   0.777749605236062   0.625003231064805   1.0000000
B2   B   0.555632550037649   0.277935065642056   0.625322659384795   1.0000000
B2   B   0.888921495640611   0.277775988188939   0.624910862030074   1.0000000
B2   B   0.222265575167552   0.777799454250444   0.125049796466433   1.0000000
B2   B   0.055661581929925   0.277801506169926   0.125136390909648   1.0000000
B2   B   0.388999733379035   0.277879745723982   0.125621848538067   1.0000000
B2   B   0.555620729237814   0.777746793701261   0.125083896139595   1.0000000
B2   B   0.888837640885917   0.777766491677132   0.125115027252743   1.0000000
B2   B   0.722208559794554   0.277792287891827   0.124996768935195   1.0000000
B2   B   0.055605738116210   0.944522750491074   0.624884639867262   1.0000000
B2   B   0.388969158131204   0.944532571284972   0.624913926679443   1.0000000
B2   B   0.222357978621995   0.444419258150650   0.624739691119259   1.0000000
B2   B   0.555700800207348   0.444517066770338   0.624332630085870   1.0000000
B2   B   0.722266052859612   0.944460342383381   0.624944613149966   1.0000000
B2   B   0.888837640885917   0.444404482542122   0.624884972747257   1.0000000
B2   B   0.055605738116210   0.444416320958465   0.125115360132738   1.0000000
B2   B   0.222301421680525   0.944564070778489   0.125118003257686   1.0000000
B2   B   0.555619569021215   0.944476451177272   0.125079946240202   1.0000000
B2   B   0.388999733379035   0.444453320988388   0.125621848538067   1.0000000
B2   B   0.888921495640611   0.944478840785008   0.125089137969926   1.0000000
B2   B   0.722083186953604   0.444384547717875   0.124514048800850   1.0000000
B2   B   0.222301421680525   0.611070684235370   0.624881996742314   1.0000000
B2   B   0.055661581929925   0.111193409093334   0.624863609090352   1.0000000
B2   B   0.555632550037649   0.611030817728928   0.625322659384795   1.0000000
B2   B   0.389014250155326   0.111302889395898   0.624780286780441   1.0000000
B2   B   0.888757761257519   0.611045547295431   0.624889660288368   1.0000000
B2   B   0.055537001789498   0.611077640177492   0.125086813879778   1.0000000
B2   B   0.722266052859612   0.111139043809567   0.624944613149966   1.0000000
B2   B   0.222357978621995   0.111272053804681   0.125260308880740   1.0000000
B2   B   0.389014250155326   0.611044694092772   0.125219713219558   1.0000000
B2   B   0.722083186953604   0.611031972569064   0.124514048800850   1.0000000
B2   B   0.555620729237814   0.111207268869890   0.125083896139595   1.0000000
B2   B   0.389014250155326   0.611044694092772   0.624780286780441   1.0000000
B2   B   0.888953842271681   0.111143587802512   0.125043108578505   1.0000000
B2   B   0.222265575167552   0.777799454250444   0.624950203533567   1.0000000
B2   B   0.055661581929925   0.277801506169926   0.624863609090352   1.0000000
B2   B   0.388999733379035   0.277879745723982   0.624378151461932   1.0000000
B2   B   0.555620729237814   0.777746793701261   0.624916103860405   1.0000000
B2   B   0.888837640885917   0.777766491677132   0.624884972747257   1.0000000
B2   B   0.722208559794554   0.277792287891827   0.625003231064805   1.0000000
B2   B   0.055537001789498   0.777792694945341   0.125086813879778   1.0000000
B2   B   0.388969158131204   0.777769920179567   0.125086073320558   1.0000000
B2   B   0.222391735755230   0.277862534544283   0.125355224073200   1.0000000
B2   B   0.722208559794554   0.777749605236062   0.124996768935195   1.0000000
B2   B   0.555632550037649   0.277935065642056   0.124677340615205   1.0000000
B2   B   0.888921495640611   0.277775988188939   0.125089137969926   1.0000000
B2   B   0.055605738116210   0.444416320958465   0.624884639867262   1.0000000
B2   B   0.222301421680525   0.944564070778489   0.624881996742314   1.0000000
B2   B   0.555619569021215   0.944476451177272   0.624920053759799   1.0000000
B2   B   0.388999733379035   0.444453320988388   0.624378151461932   1.0000000
B2   B   0.888921495640611   0.944478840785008   0.624910862030074   1.0000000
B2   B   0.055605738116210   0.944522750491074   0.125115360132738   1.0000000
B2   B   0.722083186953604   0.444384547717875   0.625485951199150   1.0000000
B2   B   0.388969158131204   0.944532571284972   0.125086073320558   1.0000000
B2   B   0.222357978621995   0.444419258150650   0.125260308880740   1.0000000
B2   B   0.222301421680525   0.611070684235370   0.125118003257686   1.0000000
B2   B   0.555700800207348   0.444517066770338   0.125667369914130   1.0000000
B2   B   0.722266052859612   0.944460342383381   0.125055386850035   1.0000000
B2   B   0.888837640885917   0.444404482542122   0.125115027252743   1.0000000
B2   B   0.055537001789498   0.611077640177492   0.624913186120222   1.0000000
B2   B   0.222357978621995   0.111272053804681   0.624739691119259   1.0000000
B2   B   0.722083186953604   0.611031972569064   0.625485951199150   1.0000000
B2   B   0.555620729237814   0.111207268869890   0.624916103860405   1.0000000
B2   B   0.888953842271681   0.111143587802512   0.624956891421496   1.0000000


