data_1
_audit_creation_method   'vasp2cif'
_cell_length_a    17.52789999999977
_cell_length_b    17.52789999999977
_cell_length_c    15.0
_cell_angle_alpha    90.0
_cell_angle_beta    90.0
_cell_angle_gamma    119.99999999999916

_symmetry_space_group_name_H-M    'P 1'
loop_
_atom_site_label
_atom_site_type_symbol
_atom_site_fract_x
_atom_site_fract_y
_atom_site_fract_z
_atom_site_occupancy
B2   B   0.904538244908984   0.952238366315655   0.111011327919684   1.0000000
B2   B   0.904667742443827   0.095283802830252   0.111047905781909   1.0000000
B2   B   0.904639571567301   0.238161959669178   0.111049572671462   1.0000000
B2   B   0.904429053750682   0.380998363441620   0.110992504211858   1.0000000
B2   B   0.905513050541614   0.524066784182544   0.111025882197957   1.0000000
B2   B   0.904405374503675   0.666082026946818   0.111057722658657   1.0000000
B2   B   0.904879295887866   0.809614650563169   0.111047176475935   1.0000000
B2   B   0.047581234764756   0.952348796870027   0.111011397416561   1.0000000
B2   B   0.047490086963705   0.095191845440226   0.111015408459522   1.0000000
B2   B   0.047749474081066   0.238253803542761   0.111012768857137   1.0000000
B2   B   0.047644023539661   0.380931478897217   0.111014125363099   1.0000000
B2   B   0.047677876058337   0.523806235502818   0.111019955858012   1.0000000
B2   B   0.047776597061862   0.666737155659042   0.111026476364920   1.0000000
B2   B   0.047493712408709   0.809364762498177   0.111000347863907   1.0000000
B2   B   0.190580672817632   0.952401736454270   0.111000651620266   1.0000000
B2   B   0.190360813903610   0.095001224236505   0.111050119974408   1.0000000
B2   B   0.190540624219842   0.238158712869627   0.111011362748705   1.0000000
B2   B   0.191336222216677   0.381281890464109   0.110989423558458   1.0000000
B2   B   0.190202711735282   0.523791530210104   0.111068202404127   1.0000000
B2   B   0.190414690173554   0.666759408815778   0.111073001558346   1.0000000
B2   B   0.190460932353922   0.809529135943336   0.111000789644017   1.0000000
B2   B   0.333270081827194   0.952156494576570   0.111029156241102   1.0000000
B2   B   0.333882554750005   0.095208986721182   0.111070558045114   1.0000000
B2   B   0.333097309255635   0.236868247095259   0.111067029169284   1.0000000
B2   B   0.334631029322907   0.379808015824153   0.110910447512943   1.0000000
B2   B   0.333228918410462   0.525739679899701   0.110939494561073   1.0000000
B2   B   0.333188130994941   0.667704635982695   0.111107673973521   1.0000000
B2   B   0.333334486489662   0.809846815965571   0.111068505256064   1.0000000
B2   B   0.476243821142852   0.952139436349007   0.111020499994154   1.0000000
B2   B   0.475960909148611   0.094386897887340   0.111030472630034   1.0000000
B2   B   0.477467677291507   0.237903019395411   0.111058999068945   1.0000000
B2   B   0.475711916996538   0.381423881350649   0.111072626515671   1.0000000
B2   B   0.475377257202084   0.666110189433333   0.111053162562491   1.0000000
B2   B   0.476279035381687   0.809398856447558   0.111066336795197   1.0000000
B2   B   0.619066894728213   0.952409878816454   0.111011247185836   1.0000000
B2   B   0.618989741969720   0.095542034988419   0.110990852939054   1.0000000
B2   B   0.618105429197833   0.238080484340038   0.111018490633811   1.0000000
B2   B   0.619097515768878   0.524208851001426   0.111060911761889   1.0000000
B2   B   0.618899985096270   0.665366048091407   0.111026112750587   1.0000000
B2   B   0.618905124014368   0.809149539362998   0.111010936206824   1.0000000
B2   B   0.761751667870804   0.952271097724562   0.111006554220914   1.0000000
B2   B   0.761798084589095   0.095327289424816   0.111049073230248   1.0000000
B2   B   0.761687133069216   0.238269685996905   0.111042623307320   1.0000000
B2   B   0.761883358860686   0.381894789270198   0.111019586929785   1.0000000
B2   B   0.762045802895045   0.522514300653278   0.111052533882230   1.0000000
B2   B   0.762417465512080   0.667040238251580   0.111050796894482   1.0000000
B2   B   0.761501607599826   0.809096197667778   0.111010796584928   1.0000000
C2   C   0.384507448601738   0.478845683348616   0.110721259431045   1.0000000
C2   C   0.475834302458189   0.524746183356037   0.110944024394314   1.0000000
C2   C   0.523010985565762   0.478624178107502   0.111052725823249   1.0000000
C2   C   0.618778599759416   0.381103245511497   0.111075904273875   1.0000000
N2   N   0.952359586221476   0.904687816178942   0.111009612106969   1.0000000
N2   N   0.952084778426894   0.047457158835258   0.111007527870811   1.0000000
N2   N   0.952088712196336   0.190531898599445   0.111033211214497   1.0000000
N2   N   0.951772920472649   0.333348721710415   0.110986971924483   1.0000000
N2   N   0.952069809466195   0.476053637213511   0.110978452115468   1.0000000
N2   N   0.952248209710717   0.618816693703558   0.111024871013569   1.0000000
N2   N   0.952025240523966   0.761346552475800   0.111026976027034   1.0000000
N2   N   0.095215784307882   0.904627509410496   0.110971916445038   1.0000000
N2   N   0.095097511484269   0.047353325874674   0.111008742772832   1.0000000
N2   N   0.094911684303327   0.190158119960600   0.110995659887514   1.0000000
N2   N   0.095168618275856   0.333355793885971   0.110989576720243   1.0000000
N2   N   0.094654953573915   0.476137058534320   0.111021952425418   1.0000000
N2   N   0.094960143197632   0.619030990552410   0.111024643826561   1.0000000
N2   N   0.095137091178501   0.761846750687887   0.110978679056970   1.0000000
N2   N   0.238159141115013   0.904781345088885   0.110979119047769   1.0000000
N2   N   0.238585959791123   0.047682554981385   0.111032856007455   1.0000000
N2   N   0.237944455793489   0.189665229604699   0.111038993687274   1.0000000
N2   N   0.238074898382756   0.332588566292998   0.110962119516366   1.0000000
N2   N   0.237321665709771   0.476619504929459   0.111001754980521   1.0000000
N2   N   0.237740557706154   0.619434154435837   0.111085560727993   1.0000000
N2   N   0.238029151758141   0.762138908864046   0.111031517666753   1.0000000
N2   N   0.381126943862043   0.905093636034444   0.111022502884886   1.0000000
N2   N   0.381256779697225   0.047492445548940   0.111034217533963   1.0000000
N2   N   0.382675974165274   0.190694688649515   0.111059525726340   1.0000000
N2   N   0.380965549907742   0.330287960100421   0.111021530974746   1.0000000
N2   N   0.380739030476576   0.621094651105352   0.111052324502978   1.0000000
N2   N   0.381083615330759   0.762874339104080   0.111081507274925   1.0000000
N2   N   0.523983139283487   0.904907249480168   0.111016354755968   1.0000000
N2   N   0.523990342736440   0.047717065990326   0.110981467529847   1.0000000
N2   N   0.524098738803389   0.190289260569628   0.111013379664989   1.0000000
N2   N   0.529125077204519   0.335464333432313   0.111069785308700   1.0000000
N2   N   0.523199611840006   0.617855658310567   0.110998547286321   1.0000000
N2   N   0.523946150447159   0.761811673026969   0.111036209611385   1.0000000
N2   N   0.666603478974906   0.904755863877831   0.110984129727953   1.0000000
N2   N   0.666577410915480   0.048076870417049   0.110986061476616   1.0000000
N2   N   0.666425505792439   0.191641036101863   0.110995552032868   1.0000000
N2   N   0.664521972908034   0.335462184931970   0.111023331750459   1.0000000
N2   N   0.664841314529170   0.471074338731278   0.111058901974253   1.0000000
N2   N   0.668594246760804   0.619546323314310   0.111014077889905   1.0000000
N2   N   0.666271063774019   0.761167399115571   0.110996635924110   1.0000000
N2   N   0.809245225935548   0.904516906908711   0.110981642333996   1.0000000
N2   N   0.809289594765609   0.047698458332483   0.111031503468503   1.0000000
N2   N   0.809097596752800   0.190767843777799   0.111053070591254   1.0000000
N2   N   0.808252385897035   0.333533392180108   0.110998926164037   1.0000000
N2   N   0.809654926045205   0.475975951817247   0.111014955299069   1.0000000
N2   N   0.808620631565631   0.617417858484885   0.111049479142764   1.0000000
N2   N   0.809910402651823   0.762015630933355   0.111028147742715   1.0000000


