data_1
_audit_creation_method   'vasp2cif'
_cell_length_a    17.52789999999977
_cell_length_b    17.52789999999977
_cell_length_c    15.0
_cell_angle_alpha    90.0
_cell_angle_beta    90.0
_cell_angle_gamma    119.99999999999916

_symmetry_space_group_name_H-M    'P 1'
loop_
_atom_site_label
_atom_site_type_symbol
_atom_site_fract_x
_atom_site_fract_y
_atom_site_fract_z
_atom_site_occupancy
In2   In   0.497471121243648   0.502530280673341   0.111207264539356   1.0000000
B2   B   0.906338628788007   0.953486650661044   0.110993094793143   1.0000000
B2   B   0.904597379499709   0.095404641696282   0.111019749573183   1.0000000
B2   B   0.904060500998720   0.238008592805530   0.111026046276978   1.0000000
B2   B   0.904334525333017   0.380823295957610   0.110979721772240   1.0000000
B2   B   0.905609592703287   0.523805412978186   0.111028958417470   1.0000000
B2   B   0.906698265735651   0.667082610902720   0.111091165891686   1.0000000
B2   B   0.907628354393774   0.811104787098525   0.111029118187178   1.0000000
B2   B   0.048307156034316   0.951694865161690   0.111008974482276   1.0000000
B2   B   0.046515370534959   0.093663392407997   0.110993094793143   1.0000000
B2   B   0.045930380054648   0.236830160061896   0.110979575946333   1.0000000
B2   B   0.046378586042949   0.380169702442012   0.111002901873160   1.0000000
B2   B   0.047663245889499   0.523287373158290   0.111006276078785   1.0000000
B2   B   0.048843946061913   0.666200629238753   0.111054314598065   1.0000000
B2   B   0.048976726962929   0.809093511717806   0.111037287051177   1.0000000
B2   B   0.190908509478198   0.951025294233074   0.111037287051177   1.0000000
B2   B   0.188897234097476   0.092373666802224   0.111029118187178   1.0000000
B2   B   0.186280391639372   0.233656496137192   0.110970878862746   1.0000000
B2   B   0.187552308208228   0.378653610733560   0.111037925484838   1.0000000
B2   B   0.189563569976450   0.522565576653717   0.111048874351224   1.0000000
B2   B   0.191595862458779   0.665694614528883   0.111022384642865   1.0000000
B2   B   0.191490276386360   0.808511744809651   0.110988968680599   1.0000000
B2   B   0.333801391958253   0.951158075134098   0.111054314598065   1.0000000
B2   B   0.332919410294285   0.093303755460345   0.111091165891686   1.0000000
B2   B   0.328998953839918   0.232720342420273   0.111012146584927   1.0000000
B2   B   0.324816162624953   0.373799048684679   0.111040504828852   1.0000000
B2   B   0.331198178049137   0.520357069134740   0.111079182253080   1.0000000
B2   B   0.334935832916719   0.665066188280278   0.111065770433723   1.0000000
B2   B   0.334307406668115   0.808406158737221   0.111022384642865   1.0000000
B2   B   0.476714648038708   0.952338775306501   0.111006276078785   1.0000000
B2   B   0.476196608218821   0.094392428492712   0.111028958417470   1.0000000
B2   B   0.475502335265855   0.235984762781392   0.111041801893317   1.0000000
B2   B   0.468414945077008   0.369501927632721   0.111174869666242   1.0000000
B2   B   0.479644952062257   0.668803843147864   0.111079182253080   1.0000000
B2   B   0.477436444543277   0.810438451219552   0.111048874351224   1.0000000
B2   B   0.619832318754000   0.953623435153063   0.111002901873160   1.0000000
B2   B   0.619178725238395   0.095667495862987   0.110979721772240   1.0000000
B2   B   0.618982847864650   0.238210037459954   0.110976573455571   1.0000000
B2   B   0.618835303048278   0.381166718147719   0.111005288081118   1.0000000
B2   B   0.630500093563279   0.531587076119997   0.111174869666242   1.0000000
B2   B   0.626202972511322   0.675185858572045   0.111040504828852   1.0000000
B2   B   0.621348410462440   0.812449712987770   0.111037925484838   1.0000000
B2   B   0.763171861134102   0.954071641141358   0.110979575946333   1.0000000
B2   B   0.761993428390473   0.095941520197273   0.111026046276978   1.0000000
B2   B   0.761645559596718   0.238356461599286   0.111031725123831   1.0000000
B2   B   0.761791983736046   0.381019173331355   0.110976573455571   1.0000000
B2   B   0.764017258414607   0.524499685931146   0.111041801893317   1.0000000
B2   B   0.767281678775727   0.671003067357076   0.111012146584927   1.0000000
B2   B   0.766345525058810   0.813721629556632   0.110970878862746   1.0000000
N2   N   0.954036749156799   0.905722535076718   0.110983539889726   1.0000000
N2   N   0.952232543909797   0.047768858008209   0.111002266702177   1.0000000
N2   N   0.951188291979043   0.190096504970351   0.110992349792420   1.0000000
N2   N   0.951358462099994   0.332929459975565   0.110974078904690   1.0000000
N2   N   0.952583173012022   0.475912445918904   0.110970585266350   1.0000000
N2   N   0.953875502309720   0.619017887072942   0.111070201592137   1.0000000
N2   N   0.954381219153299   0.762387645117162   0.111051781872822   1.0000000
N2   N   0.096003588187073   0.903997813730918   0.110993827132913   1.0000000
N2   N   0.094278866841282   0.045964652761197   0.110983539889726   1.0000000
N2   N   0.091991971365784   0.187696142368154   0.110947785144995   1.0000000
N2   N   0.092538804678307   0.331637402627450   0.110990549106745   1.0000000
N2   N   0.094218293268473   0.475289074484284   0.111000522866065   1.0000000
N2   N   0.096113372356549   0.618474551706614   0.111012377335996   1.0000000
N2   N   0.096439424667643   0.761329653055662   0.111002090955128   1.0000000
N2   N   0.238671748862341   0.903561977250349   0.111002090955128   1.0000000
N2   N   0.237613756800841   0.045620182764707   0.111051781872822   1.0000000
N2   N   0.234204616333870   0.186029891901818   0.110964641749140   1.0000000
N2   N   0.230719870430427   0.327018881182136   0.110990957795675   1.0000000
N2   N   0.234922281206592   0.474058896410751   0.111057274031734   1.0000000
N2   N   0.238768685803792   0.618082309850699   0.111031381998465   1.0000000
N2   N   0.239001127618922   0.761000274299089   0.110977971440786   1.0000000
N2   N   0.381526850211389   0.903888029561445   0.111012377335996   1.0000000
N2   N   0.380983514845046   0.046125899608293   0.111070201592137   1.0000000
N2   N   0.379675260713256   0.187611348625973   0.111046823585945   1.0000000
N2   N   0.373289558735118   0.325432624365110   0.111029272746968   1.0000000
N2   N   0.367482678016285   0.465433462090433   0.111038767751602   1.0000000
N2   N   0.382307888095844   0.617693513822160   0.111063688585595   1.0000000
N2   N   0.381919092067299   0.761232716114217   0.111031381998465   1.0000000
N2   N   0.524712327432713   0.905783108649525   0.111000522866065   1.0000000
N2   N   0.524088955998089   0.047418228905977   0.110970585266350   1.0000000
N2   N   0.523701845834237   0.189201304685290   0.110988564191286   1.0000000
N2   N   0.523299286394230   0.330630048358713   0.111032757210391   1.0000000
N2   N   0.534567939826562   0.632518723901712   0.111038767751602   1.0000000
N2   N   0.525942505506248   0.765079120711413   0.111057274031734   1.0000000
N2   N   0.668363999289544   0.907462597239686   0.110990549106745   1.0000000
N2   N   0.667071941941430   0.048642939818010   0.110974078904690   1.0000000
N2   N   0.666660921648973   0.190694119362516   0.110985590004010   1.0000000
N2   N   0.666723515593601   0.333277886323399   0.110943028740376   1.0000000
N2   N   0.669371353558287   0.476702115522773   0.111032757210391   1.0000000
N2   N   0.674568777551893   0.626711843182879   0.111029272746968   1.0000000
N2   N   0.672982520734864   0.769281531487575   0.110990957795675   1.0000000
N2   N   0.812305259549848   0.908009430552220   0.110947785144995   1.0000000
N2   N   0.809904896947654   0.048813109938967   0.110992349792420   1.0000000
N2   N   0.809173301651609   0.190828100266396   0.111036329401725   1.0000000
N2   N   0.809307282555485   0.333340480268017   0.110985590004010   1.0000000
N2   N   0.810800097232709   0.476299556082767   0.110988564191286   1.0000000
N2   N   0.812390053292025   0.620326141204740   0.111046823585945   1.0000000
N2   N   0.813971510016181   0.765796785584144   0.110964641749140   1.0000000


