data_1
_audit_creation_method   'vasp2cif'
_cell_length_a    17.52789999999977
_cell_length_b    17.52789999999977
_cell_length_c    15.0
_cell_angle_alpha    90.0
_cell_angle_beta    90.0
_cell_angle_gamma    119.99999999999916

_symmetry_space_group_name_H-M    'P 1'
loop_
_atom_site_label
_atom_site_type_symbol
_atom_site_fract_x
_atom_site_fract_y
_atom_site_fract_z
_atom_site_occupancy
B2   B   0.911379859684645   0.956173459864611   0.111203620309112   1.0000000
B2   B   0.908786803041370   0.096543624700728   0.111481734087842   1.0000000
B2   B   0.907971038832300   0.238043126364052   0.111309241845567   1.0000000
B2   B   0.908298013085956   0.380320532574376   0.111083483399632   1.0000000
B2   B   0.909238047910550   0.523248904440692   0.111133046880873   1.0000000
B2   B   0.910675844031070   0.666560761491110   0.110938431100569   1.0000000
B2   B   0.907031705214565   0.809159012057922   0.110748213737788   1.0000000
B2   B   0.051683189226435   0.954295944322456   0.111208029105452   1.0000000
B2   B   0.052462704738165   0.097432699733377   0.111302275691922   1.0000000
B2   B   0.050500591222805   0.238423457023002   0.111004103512833   1.0000000
B2   B   0.049609515974546   0.380825835315239   0.110756955239719   1.0000000
B2   B   0.049762107893291   0.524254742653510   0.111104223653812   1.0000000
B2   B   0.050959856743973   0.667906630845052   0.111269699502599   1.0000000
B2   B   0.050889020845084   0.811230030435672   0.111191326733099   1.0000000
B2   B   0.194281386154947   0.955268209934159   0.111208403962971   1.0000000
B2   B   0.195975450650014   0.099236098578548   0.111027655924486   1.0000000
B2   B   0.193805026839615   0.239540196090540   0.109982133447723   1.0000000
B2   B   0.190818971756889   0.380428386357864   0.108696328245425   1.0000000
B2   B   0.189634935815884   0.524229054424184   0.109508821581096   1.0000000
B2   B   0.190820343230329   0.668295720658714   0.110999464972033   1.0000000
B2   B   0.193118392790012   0.811819778233718   0.111300265581545   1.0000000
B2   B   0.336243845172137   0.955012780896019   0.111140526921415   1.0000000
B2   B   0.337766933996073   0.099143280558090   0.111037267431727   1.0000000
B2   B   0.341343673185466   0.245661231315111   0.110567800051557   1.0000000
B2   B   0.333655078452669   0.381010049081335   0.108372240089889   1.0000000
B2   B   0.328195906249382   0.523321880213001   0.108640019596709   1.0000000
B2   B   0.329580496022679   0.668140295336749   0.110700478199330   1.0000000
B2   B   0.335037427935082   0.811723635298945   0.111064870079705   1.0000000
B2   B   0.478224076698250   0.953530406597988   0.110984980341646   1.0000000
B2   B   0.479310863489317   0.096734710170731   0.111062744494981   1.0000000
B2   B   0.481111390395600   0.240994593536020   0.111242001913689   1.0000000
B2   B   0.490104364878715   0.392602466958568   0.111178268895524   1.0000000
B2   B   0.465475506493175   0.662803316082980   0.109722525981708   1.0000000
B2   B   0.477323218562181   0.809959953397770   0.110300621032505   1.0000000
B2   B   0.621121762419771   0.955799211736771   0.110955678340886   1.0000000
B2   B   0.621670087195985   0.095587679093430   0.110972144841277   1.0000000
B2   B   0.622618165079226   0.235682026354940   0.110986817888862   1.0000000
B2   B   0.624432195195764   0.374219197007976   0.111757238738934   1.0000000
B2   B   0.620979651243101   0.505967815445134   0.108713746859748   1.0000000
B2   B   0.621846551735774   0.817538985819338   0.108884371489326   1.0000000
B2   B   0.766087178111654   0.955496567973114   0.110909270197198   1.0000000
B2   B   0.765085877462624   0.096065820417379   0.111203912408923   1.0000000
B2   B   0.765375215474830   0.237155772421125   0.110880405780661   1.0000000
B2   B   0.766576870898738   0.378485944892847   0.111014706350269   1.0000000
B2   B   0.767835797642968   0.520087807384274   0.111080462766425   1.0000000
B2   B   0.767770205922267   0.660376816290784   0.109509083961871   1.0000000
B2   B   0.770590702972834   0.817073245005724   0.109151855372291   1.0000000
In2   In   0.615707872367808   0.660142857962467   0.111521212992195   1.0000000
N2   N   0.956238832852976   0.905752757041927   0.111063606005745   1.0000000
N2   N   0.957852118690469   0.050486491102083   0.111462734043169   1.0000000
N2   N   0.955678258846551   0.191010585649299   0.111498819928396   1.0000000
N2   N   0.955160734660591   0.332779055247845   0.111219652664032   1.0000000
N2   N   0.955637069082098   0.475444332339897   0.111169995020858   1.0000000
N2   N   0.957103189215103   0.618815901991532   0.111123907232793   1.0000000
N2   N   0.955927640192910   0.762502344866618   0.110976933528373   1.0000000
N2   N   0.099018491331356   0.906737233336185   0.111202978961404   1.0000000
N2   N   0.100039401174882   0.050009604399275   0.111225027072273   1.0000000
N2   N   0.098758118785622   0.191707159003741   0.110930865063109   1.0000000
N2   N   0.096301092123013   0.332862591427184   0.110313503602437   1.0000000
N2   N   0.095574814234368   0.475841795549197   0.110640735318189   1.0000000
N2   N   0.096700294402067   0.619657344703218   0.111223237615760   1.0000000
N2   N   0.098127355025962   0.763489063806333   0.111264022959409   1.0000000
N2   N   0.241085189396167   0.907165691895686   0.111225370104693   1.0000000
N2   N   0.242363903216258   0.050600324398994   0.111093104905210   1.0000000
N2   N   0.244133693623575   0.194753793172019   0.110586031687262   1.0000000
N2   N   0.238502209882847   0.333143656779028   0.108342057110043   1.0000000
N2   N   0.234543047355575   0.474963499004918   0.107651617149157   1.0000000
N2   N   0.235421768988798   0.619636628892702   0.110300535431798   1.0000000
N2   N   0.239686936481763   0.763852124780354   0.111273248321179   1.0000000
N2   N   0.383097664822880   0.906930811976371   0.111075823454924   1.0000000
N2   N   0.384180021314985   0.050075077615253   0.111064824458732   1.0000000
N2   N   0.385783176196880   0.194236343783350   0.110967235377677   1.0000000
N2   N   0.390011132286715   0.341932397792120   0.110135061526446   1.0000000
N2   N   0.371721163474650   0.473069619730770   0.109169773275585   1.0000000
N2   N   0.371573966816071   0.618896759440225   0.110838991040057   1.0000000
N2   N   0.381437202555961   0.763917829924636   0.110720610767356   1.0000000
N2   N   0.525630349117455   0.906001569107219   0.110770632449803   1.0000000
N2   N   0.526462147267443   0.048577548959316   0.111004814889683   1.0000000
N2   N   0.527602670061462   0.191291757848091   0.111095776991461   1.0000000
N2   N   0.530604688538631   0.335309736484325   0.111590367132070   1.0000000
N2   N   0.460955211227670   0.514997910899967   0.119617710464864   1.0000000
N2   N   0.492570413307276   0.601663794826083   0.110734780778835   1.0000000
N2   N   0.524610192823829   0.762000507355086   0.109293151878640   1.0000000
N2   N   0.670149203171422   0.911595275632811   0.110667182442049   1.0000000
N2   N   0.669851626059129   0.049738115304401   0.111163788237657   1.0000000
N2   N   0.670408172638553   0.189339579870351   0.110753695557498   1.0000000
N2   N   0.672245946620429   0.328696382566984   0.111265442450089   1.0000000
N2   N   0.673775429393690   0.466092693567226   0.111224202302835   1.0000000
N2   N   0.677463724560070   0.597739179444783   0.107690677685297   1.0000000
N2   N   0.680220943072721   0.785226078377862   0.106698713726170   1.0000000
N2   N   0.817829263977078   0.911332170905798   0.110835117342232   1.0000000
N2   N   0.813727576768167   0.049859525403806   0.111312210837702   1.0000000
N2   N   0.813154318595533   0.190469808886677   0.111105277486414   1.0000000
N2   N   0.813913001082814   0.331711582915053   0.110817764316097   1.0000000
N2   N   0.815204535225501   0.473508603605140   0.111128933127875   1.0000000
N2   N   0.817733120175373   0.616281584257035   0.110674817845289   1.0000000
N2   N   0.811106240257351   0.760143219892145   0.109930057103854   1.0000000


