data_1
_audit_creation_method   'vasp2cif'
_cell_length_a    17.52789999999977
_cell_length_b    17.52789999999977
_cell_length_c    15.0
_cell_angle_alpha    90.0
_cell_angle_beta    90.0
_cell_angle_gamma    119.99999999999916

_symmetry_space_group_name_H-M    'P 1'
loop_
_atom_site_label
_atom_site_type_symbol
_atom_site_fract_x
_atom_site_fract_y
_atom_site_fract_z
_atom_site_occupancy
B2   B   0.904204686577209   0.951384525248231   0.102179847919497   1.0000000
B2   B   0.903806384513291   0.093689576596096   0.106461157895714   1.0000000
B2   B   0.903850358870893   0.236463031668986   0.108364349644864   1.0000000
B2   B   0.904156025813747   0.379591923084062   0.107193741877978   1.0000000
B2   B   0.905693104907779   0.523127429194958   0.102922527296601   1.0000000
B2   B   0.906643791273833   0.666807584586009   0.098974765090782   1.0000000
B2   B   0.906062176665048   0.810083555585357   0.097607924432371   1.0000000
B2   B   0.048135766191231   0.952823541860693   0.102280981501450   1.0000000
B2   B   0.047847710313711   0.095468498029496   0.105251490094530   1.0000000
B2   B   0.047030366334246   0.237337175993506   0.107300271508059   1.0000000
B2   B   0.046546701975641   0.379823100686060   0.106761847734033   1.0000000
B2   B   0.046839558577111   0.523134191129151   0.105185043045519   1.0000000
B2   B   0.047905432684618   0.666691115295784   0.102906461016612   1.0000000
B2   B   0.048398601853873   0.810012846181454   0.101044464361955   1.0000000
B2   B   0.190911490368758   0.952959260835281   0.106345941936343   1.0000000
B2   B   0.190652341861683   0.095756585512208   0.106771499329748   1.0000000
B2   B   0.191884733346236   0.240158541940393   0.108518415628933   1.0000000
B2   B   0.189634997267912   0.380850372217182   0.107484317945741   1.0000000
B2   B   0.188151681110456   0.523402996357595   0.104642893024280   1.0000000
B2   B   0.189190666995623   0.666594085687234   0.105576961248560   1.0000000
B2   B   0.190505669329146   0.809832638887963   0.106349582699768   1.0000000
B2   B   0.333387584242742   0.952434028635237   0.109697699380526   1.0000000
B2   B   0.333693806205568   0.095713845565818   0.111632291422397   1.0000000
B2   B   0.332710910486186   0.238203935036671   0.113892694541995   1.0000000
B2   B   0.337165962841671   0.386987299801924   0.118775040737871   1.0000000
B2   B   0.328920799408513   0.524498175579817   0.109049913449341   1.0000000
B2   B   0.330420723407626   0.666723753528924   0.105169956842610   1.0000000
B2   B   0.332739011265341   0.809376342002298   0.107949234832622   1.0000000
B2   B   0.475739961020790   0.950531557195197   0.109900176998515   1.0000000
B2   B   0.476172419854878   0.094384877629592   0.113029246591406   1.0000000
B2   B   0.476515241416472   0.237775970399545   0.121916533169703   1.0000000
B2   B   0.470211021768009   0.374020688796120   0.147388858405363   1.0000000
B2   B   0.478936712650082   0.564381877921139   0.130617842620284   1.0000000
B2   B   0.470732245646108   0.658706298627521   0.111573195344601   1.0000000
B2   B   0.474802084200006   0.805797055078043   0.108650828633212   1.0000000
B2   B   0.617835909118721   0.949593163421029   0.108870114323763   1.0000000
B2   B   0.618450453623931   0.093482831158284   0.110949116206039   1.0000000
B2   B   0.618938484066920   0.237125840708884   0.116436216127266   1.0000000
B2   B   0.620242862237248   0.381004988753964   0.131051997494258   1.0000000
B2   B   0.637520016830351   0.532020305438846   0.152483117535418   1.0000000
B2   B   0.622988908674374   0.663780193274751   0.128623005176113   1.0000000
B2   B   0.616308332232010   0.805211623718484   0.110606818118460   1.0000000
B2   B   0.760293096884941   0.949781492247990   0.106267776783263   1.0000000
B2   B   0.760841515722217   0.093108498590460   0.108701741798810   1.0000000
B2   B   0.761262404445525   0.236417081744472   0.110489890782295   1.0000000
B2   B   0.761956772860059   0.379781186473988   0.111477127492608   1.0000000
B2   B   0.765499515842373   0.523557121485524   0.111124252662481   1.0000000
B2   B   0.766698228536755   0.668106893253899   0.104376904070053   1.0000000
B2   B   0.760656924062604   0.807052553655116   0.104514452927606   1.0000000
N2   N   0.952903834224847   0.904948935495876   0.099819508147571   1.0000000
N2   N   0.952064186116142   0.046816430388273   0.104533818708518   1.0000000
N2   N   0.951581371158280   0.189025207749866   0.107645661122376   1.0000000
N2   N   0.951412645260452   0.331766480390712   0.107776901570752   1.0000000
N2   N   0.952093416309265   0.474940529364805   0.104981821393144   1.0000000
N2   N   0.953186407191774   0.618573804749122   0.100569183713891   1.0000000
N2   N   0.953393247509753   0.762175896423065   0.097452728851209   1.0000000
N2   N   0.095760286226141   0.905254942187072   0.102913165438563   1.0000000
N2   N   0.095488456102365   0.047946307839819   0.104636374001651   1.0000000
N2   N   0.095919907094485   0.191103545503740   0.106879275840804   1.0000000
N2   N   0.094373795463502   0.332453622814120   0.107045940046487   1.0000000
N2   N   0.093509138825031   0.475088881913210   0.105669186212502   1.0000000
N2   N   0.094408354116194   0.618525770323283   0.105005715954402   1.0000000
N2   N   0.095469825579012   0.762059617484995   0.103513217947050   1.0000000
N2   N   0.238220411461472   0.905079837757175   0.107868820779114   1.0000000
N2   N   0.238453350472591   0.048235852419937   0.108057296557547   1.0000000
N2   N   0.238041562287440   0.191008884066550   0.108172488568455   1.0000000
N2   N   0.240491056340911   0.336482066670183   0.110667210247494   1.0000000
N2   N   0.235018975755946   0.475551980996053   0.105231834147785   1.0000000
N2   N   0.235593390637558   0.618559746045825   0.104554683181023   1.0000000
N2   N   0.237533457210917   0.761892769751281   0.107026863071088   1.0000000
N2   N   0.380629985628714   0.904386097616689   0.109426575382519   1.0000000
N2   N   0.381022668405032   0.047632297580559   0.111608663096092   1.0000000
N2   N   0.381181215703938   0.191000166609886   0.115786652971932   1.0000000
N2   N   0.379570815194384   0.333120501107728   0.122361531038212   1.0000000
N2   N   0.383861693698548   0.485365641898930   0.119978323722631   1.0000000
N2   N   0.376010621600476   0.618749744579084   0.105737615986065   1.0000000
N2   N   0.379717668895765   0.761392047819061   0.107212762761717   1.0000000
N2   N   0.522724345897611   0.901718191156041   0.109293503040996   1.0000000
N2   N   0.523356679397437   0.046049645049236   0.111128372713225   1.0000000
N2   N   0.523781568854957   0.189722882965409   0.116945072105548   1.0000000
N2   N   0.523760440486813   0.332601839666049   0.135442510113607   1.0000000
N2   N   0.521181826539168   0.755613404299122   0.110094660203902   1.0000000
N2   N   0.664781389397134   0.901078643287177   0.108031108731779   1.0000000
N2   N   0.665602831089899   0.045214797663558   0.109314750695543   1.0000000
N2   N   0.666103411007720   0.188977591567164   0.112295373172869   1.0000000
N2   N   0.666668990963519   0.332657260149350   0.119252820319457   1.0000000
N2   N   0.673090226549942   0.476933901724506   0.131645841861820   1.0000000
N2   N   0.674034063184219   0.620861201542729   0.122343639839432   1.0000000
N2   N   0.663639410737195   0.757136090577204   0.113396371697289   1.0000000
N2   N   0.808201640162785   0.902496453058491   0.103331432707979   1.0000000
N2   N   0.808293283827660   0.045311048458846   0.107082038881016   1.0000000
N2   N   0.808587284684878   0.188518141181473   0.109249188513059   1.0000000
N2   N   0.808964047251529   0.331736234576160   0.109262401214284   1.0000000
N2   N   0.811024688405878   0.474980522771755   0.105622403510188   1.0000000
N2   N   0.812140276904009   0.618806152416886   0.102124424945032   1.0000000
N2   N   0.810955834853357   0.762286251143399   0.098339690485904   1.0000000
Si2   Si   0.522775226067634   0.493645659082938   0.197274198762290   1.0000000


