data_1
_audit_creation_method   'vasp2cif'
_cell_length_a    14.93631414619966
_cell_length_b    14.936314146199727
_cell_length_c    13.341276283792837
_cell_angle_alpha    90.0
_cell_angle_beta    90.0
_cell_angle_gamma    119.99999999999984

_symmetry_space_group_name_H-M    'P 1'
loop_
_atom_site_label
_atom_site_type_symbol
_atom_site_fract_x
_atom_site_fract_y
_atom_site_fract_z
_atom_site_occupancy
Al2   Al   0.555555555555557   0.444444444444443   0.375000000000000   1.0000000
N2   N   0.111119073872376   0.055540442550238   0.125110121735541   1.0000000
N2   N   0.611112620807193   0.555558574947612   0.127863943910751   1.0000000
N2   N   0.444422461002156   0.055530673608615   0.125254422875104   1.0000000
N2   N   0.944469326391377   0.555577538997877   0.125254422875104   1.0000000
N2   N   0.777765280018417   0.055549306675870   0.125202584123008   1.0000000
N2   N   0.111125497773899   0.722229415553640   0.624717205566169   1.0000000
N2   N   0.444422461002155   0.722225120726856   0.624745577124920   1.0000000
N2   N   0.277783158647747   0.222208987069133   0.624452780354830   1.0000000
N2   N   0.777791012930874   0.722216841352253   0.624452780354830   1.0000000
N2   N   0.611092495088069   0.222208987069133   0.624452780354830   1.0000000
N2   N   0.944450693324179   0.222234719981592   0.624797415876996   1.0000000
N2   N   0.277770584446377   0.722229415553640   0.125282794433839   1.0000000
N2   N   0.111127917686526   0.222230625509938   0.125129256032475   1.0000000
N2   N   0.444439161118931   0.222211655571183   0.126109352492079   1.0000000
N2   N   0.611092495088069   0.722216841352253   0.125547219645182   1.0000000
N2   N   0.944469326391378   0.722225120726856   0.125254422875104   1.0000000
N2   N   0.777769374490119   0.222230625509938   0.125129256032475   1.0000000
N2   N   0.111122052850137   0.888877947149893   0.624785602258645   1.0000000
N2   N   0.444422560966410   0.888877947149893   0.624785602258645   1.0000000
N2   N   0.277783158647746   0.388907504911951   0.624452780354832   1.0000000
N2   N   0.611112620807193   0.388887379192858   0.622136056089255   1.0000000
N2   N   0.777769374490119   0.888872082313438   0.624870743967498   1.0000000
N2   N   0.944459557449799   0.388911964655449   0.624889878264474   1.0000000
N2   N   0.111119073872375   0.388911964655449   0.125110121735541   1.0000000
N2   N   0.277770584446377   0.888874502226082   0.125282794433839   1.0000000
N2   N   0.611088035344523   0.888880926127650   0.125110121735541   1.0000000
N2   N   0.444441425052404   0.388887379192858   0.127863943910752   1.0000000
N2   N   0.944459557449799   0.888880926127650   0.125110121735541   1.0000000
N2   N   0.777791012930849   0.388907504911951   0.125547219645182   1.0000000
N2   N   0.277774879273119   0.555577538997877   0.624745577124920   1.0000000
N2   N   0.111119073872376   0.055540442550239   0.624889878264474   1.0000000
N2   N   0.611112620807193   0.555558574947612   0.622136056089255   1.0000000
N2   N   0.444422461002155   0.055530673608615   0.624745577124920   1.0000000
N2   N   0.944469326391377   0.555577538997855   0.624745577124920   1.0000000
N2   N   0.111122052850137   0.555577439033624   0.125214397741369   1.0000000
N2   N   0.777765280018420   0.055549306675870   0.624797415876996   1.0000000
N2   N   0.277774879273119   0.055530673608615   0.125254422875104   1.0000000
N2   N   0.444439161118931   0.555560838881079   0.126109352492079   1.0000000
N2   N   0.777788344428802   0.555560838881083   0.126109352492080   1.0000000
N2   N   0.611088035344523   0.055540442550237   0.125110121735541   1.0000000
N2   N   0.444439161118931   0.555560838881083   0.623890647507906   1.0000000
N2   N   0.944450693324179   0.055549306675870   0.125202584123008   1.0000000
N2   N   0.277770584446377   0.722229415553640   0.624717205566169   1.0000000
N2   N   0.111127917686526   0.222230625509938   0.624870743967498   1.0000000
N2   N   0.444439161118931   0.222211655571183   0.623890647507906   1.0000000
N2   N   0.611092495088069   0.722216841352253   0.624452780354830   1.0000000
N2   N   0.944469326391378   0.722225120726856   0.624745577124920   1.0000000
N2   N   0.777769374490119   0.222230625509938   0.624870743967498   1.0000000
N2   N   0.111125497773899   0.722229415553640   0.125282794433839   1.0000000
N2   N   0.444422461002156   0.722225120726856   0.125254422875104   1.0000000
N2   N   0.277783158647747   0.222208987069133   0.125547219645182   1.0000000
N2   N   0.777791012930849   0.722216841352253   0.125547219645182   1.0000000
N2   N   0.611092495088069   0.222208987069133   0.125547219645182   1.0000000
N2   N   0.944450693324179   0.222234719981592   0.125202584123008   1.0000000
N2   N   0.111119073872376   0.388911964655449   0.624889878264474   1.0000000
N2   N   0.277770584446377   0.888874502226082   0.624717205566169   1.0000000
N2   N   0.611088035344523   0.888880926127650   0.624889878264474   1.0000000
N2   N   0.444441425052404   0.388887379192858   0.622136056089255   1.0000000
N2   N   0.944459557449799   0.888880926127650   0.624889878264474   1.0000000
N2   N   0.111122052850137   0.888877947149893   0.125214397741369   1.0000000
N2   N   0.777791012930849   0.388907504911951   0.624452780354830   1.0000000
N2   N   0.444422560966410   0.888877947149893   0.125214397741369   1.0000000
N2   N   0.277783158647747   0.388907504911951   0.125547219645182   1.0000000
N2   N   0.277774879273119   0.555577538997855   0.125254422875104   1.0000000
N2   N   0.611112620807193   0.388887379192858   0.127863943910751   1.0000000
N2   N   0.777769374490119   0.888872082313438   0.125129256032475   1.0000000
N2   N   0.944459557449799   0.388911964655449   0.125110121735541   1.0000000
N2   N   0.111122052850137   0.555577439033624   0.624785602258645   1.0000000
N2   N   0.277774879273119   0.055530673608615   0.624745577124920   1.0000000
N2   N   0.777788344428802   0.555560838881083   0.623890647507906   1.0000000
N2   N   0.611088035344522   0.055540442550237   0.624889878264474   1.0000000
N2   N   0.944450693324179   0.055549306675870   0.624797415876996   1.0000000
N2   N   0.054477933981075   0.110436124537972   0.375000000000000   1.0000000
N2   N   0.554985646242981   0.619502731075933   0.375000000000000   1.0000000
N2   N   0.387622861038354   0.108579055410066   0.375000000000000   1.0000000
N2   N   0.891420944589973   0.612377138961624   0.375000000000000   1.0000000
N2   N   0.722624857223526   0.110436124537972   0.375000000000000   1.0000000
N2   N   0.055546233455170   0.777777784307869   0.875000000000000   1.0000000
N2   N   0.388898217519404   0.777777784307869   0.875000000000000   1.0000000
N2   N   0.222220024398528   0.277776678865950   0.875000000000000   1.0000000
N2   N   0.722223321134120   0.777779975601435   0.875000000000000   1.0000000
N2   N   0.555561980403481   0.277789445535374   0.875000000000000   1.0000000
N2   N   0.888888559254622   0.277773740158686   0.875000000000000   1.0000000
N2   N   0.222222222222221   0.777777777777779   0.375000000000000   1.0000000
N2   N   0.054477933981074   0.277375142776435   0.375000000000000   1.0000000
N2   N   0.380497268924031   0.268816248500390   0.375000000000000   1.0000000
N2   N   0.555154360123665   0.781363153418629   0.375000000000000   1.0000000
N2   N   0.892875459961674   0.781363153418629   0.375000000000000   1.0000000
N2   N   0.723880208851574   0.276119791148378   0.375000000000000   1.0000000
N2   N   0.055550717749560   0.944449282250437   0.875000000000000   1.0000000
N2   N   0.388898217519404   0.944453766544824   0.875000000000000   1.0000000
N2   N   0.222220248442840   0.444434845731862   0.875000000000000   1.0000000
N2   N   0.555555555555557   0.444444444444443   0.875000000000000   1.0000000
N2   N   0.722226259841268   0.944448152429282   0.875000000000000   1.0000000
N2   N   0.888881263955675   0.444434845731862   0.875000000000000   1.0000000
N2   N   0.055712898202736   0.444759129738798   0.375000000000000   1.0000000
N2   N   0.221820849802922   0.943467712462291   0.375000000000000   1.0000000
N2   N   0.555240870261211   0.944287101797243   0.375000000000000   1.0000000
N2   N   0.380497268924031   0.445014353756997   0.375000000000000   1.0000000
N2   N   0.889563875462067   0.945522066018903   0.375000000000000   1.0000000
N2   N   0.731183751499659   0.445014353756997   0.375000000000000   1.0000000
N2   N   0.222222215692082   0.611101782480589   0.875000000000000   1.0000000
N2   N   0.055551847570708   0.111111440745360   0.875000000000000   1.0000000
N2   N   0.555561980403481   0.611105868201484   0.875000000000000   1.0000000
N2   N   0.388898000439231   0.111129334211808   0.875000000000000   1.0000000
N2   N   0.888870665788196   0.611101999560769   0.875000000000000   1.0000000
N2   N   0.056532287537727   0.611686470673992   0.375000000000000   1.0000000
N2   N   0.722226259841268   0.111111440745360   0.875000000000000   1.0000000
N2   N   0.218636846581373   0.107124540038327   0.375000000000000   1.0000000
N2   N   0.387622861038351   0.612377138961621   0.375000000000000   1.0000000
N2   N   0.731183751499657   0.619502731075928   0.375000000000000   1.0000000
N2   N   0.555154360123666   0.107124540038328   0.375000000000000   1.0000000
N2   N   0.388898000439231   0.611101999560769   0.875000000000000   1.0000000
N2   N   0.888888888888886   0.111111111111114   0.375000000000000   1.0000000
N2   N   0.222222222222221   0.777777777777779   0.875000000000000   1.0000000
N2   N   0.055551847570708   0.277773740158686   0.875000000000000   1.0000000
N2   N   0.388894131798544   0.277789445535374   0.875000000000000   1.0000000
N2   N   0.555565154268178   0.777779751557207   0.875000000000000   1.0000000
N2   N   0.888881263955675   0.777779751557207   0.875000000000000   1.0000000
N2   N   0.722223321134120   0.277776678865950   0.875000000000000   1.0000000
N2   N   0.056532287537728   0.778179150197074   0.375000000000000   1.0000000
N2   N   0.388313529326001   0.778179150197076   0.375000000000000   1.0000000
N2   N   0.218906248963451   0.276119791148378   0.375000000000000   1.0000000
N2   N   0.723880208851607   0.781093751036580   0.375000000000000   1.0000000
N2   N   0.554985646242980   0.268816248500400   0.375000000000000   1.0000000
N2   N   0.889563875462067   0.277375142776435   0.375000000000000   1.0000000
N2   N   0.055550717749560   0.444434768832454   0.875000000000000   1.0000000
N2   N   0.222222215692082   0.944453766544824   0.875000000000000   1.0000000
N2   N   0.555565231167555   0.944449282250437   0.875000000000000   1.0000000
N2   N   0.388894131798544   0.444438019596509   0.875000000000000   1.0000000
N2   N   0.888888559254624   0.944448152429281   0.875000000000000   1.0000000
N2   N   0.055712898202736   0.944287101797243   0.375000000000000   1.0000000
N2   N   0.722210554464621   0.444438019596509   0.875000000000000   1.0000000
N2   N   0.388313529326001   0.943467712462278   0.375000000000000   1.0000000
N2   N   0.218636846581380   0.444845639876391   0.375000000000000   1.0000000
N2   N   0.221820849802929   0.611686470673992   0.375000000000000   1.0000000
N2   N   0.722624857223516   0.945522066018903   0.375000000000000   1.0000000
N2   N   0.892875459961674   0.444845639876383   0.375000000000000   1.0000000
N2   N   0.055546233455170   0.611101782480589   0.875000000000000   1.0000000
N2   N   0.222220248442840   0.111118736044321   0.875000000000000   1.0000000
N2   N   0.722210554464621   0.611105868201484   0.875000000000000   1.0000000
N2   N   0.555565154268178   0.111118736044321   0.875000000000000   1.0000000
N2   N   0.888888888888886   0.111111111111114   0.875000000000000   1.0000000
B2   B   0.108519367804190   0.053757188174661   0.375000000000000   1.0000000
B2   B   0.628170048580213   0.589673430493802   0.375000000000000   1.0000000
B2   B   0.443942534927001   0.053118708280905   0.375000000000000   1.0000000
B2   B   0.946881291719125   0.556057465073019   0.375000000000000   1.0000000
B2   B   0.778466647214990   0.055899990274182   0.375000000000000   1.0000000
B2   B   0.111121098019305   0.722227215676334   0.875000000000000   1.0000000
B2   B   0.444443664185078   0.722267473714029   0.875000000000000   1.0000000
B2   B   0.277676630645314   0.222156519073638   0.875000000000000   1.0000000
B2   B   0.777843480926359   0.722323369354680   0.875000000000000   1.0000000
B2   B   0.611146555094996   0.222156519073638   0.875000000000000   1.0000000
B2   B   0.944432656124706   0.222198645582795   0.875000000000000   1.0000000
B2   B   0.277432725184767   0.722567274815232   0.375000000000000   1.0000000
B2   B   0.108008073893865   0.220670703613598   0.375000000000000   1.0000000
B2   B   0.441786522954579   0.216906379242483   0.375000000000000   1.0000000
B2   B   0.612951503312956   0.731137274561640   0.375000000000000   1.0000000
B2   B   0.946881291719126   0.724157159979427   0.375000000000000   1.0000000
B2   B   0.779329296386370   0.220670703613598   0.375000000000000   1.0000000
B2   B   0.111106432913802   0.888893567086219   0.875000000000000   1.0000000
B2   B   0.444453800839086   0.888893567086219   0.875000000000000   1.0000000
B2   B   0.277676630645315   0.388853444905011   0.875000000000000   1.0000000
B2   B   0.611153017135135   0.388846982864858   0.875000000000000   1.0000000
B2   B   0.777816610244617   0.888966553822592   0.875000000000000   1.0000000
B2   B   0.944465501857589   0.388859397840536   0.875000000000000   1.0000000
B2   B   0.108519367804190   0.388095512962865   0.375000000000000   1.0000000
B2   B   0.277432725184767   0.888198783702844   0.375000000000000   1.0000000
B2   B   0.611904487037113   0.891480632195769   0.375000000000000   1.0000000
B2   B   0.410326569506224   0.371829951419764   0.375000000000000   1.0000000
B2   B   0.946242811825327   0.891480632195769   0.375000000000000   1.0000000
B2   B   0.784852437915307   0.387048496686987   0.375000000000000   1.0000000
B2   B   0.277732526285961   0.555556335814980   0.875000000000000   1.0000000
B2   B   0.111060562649608   0.055534498142406   0.875000000000000   1.0000000
B2   B   0.611153017135135   0.555639367603613   0.875000000000000   1.0000000
B2   B   0.444443664185078   0.055509523804377   0.875000000000000   1.0000000
B2   B   0.944490476195612   0.555556335814980   0.875000000000000   1.0000000
B2   B   0.111188787801719   0.555710908936771   0.375000000000000   1.0000000
B2   B   0.777801354417228   0.055567343875270   0.875000000000000   1.0000000
B2   B   0.275842840020582   0.053118708280905   0.375000000000000   1.0000000
B2   B   0.441786522954583   0.558213477045477   0.375000000000000   1.0000000
B2   B   0.783093620757502   0.558213477045477   0.375000000000000   1.0000000
B2   B   0.611904487037113   0.053757188174662   0.375000000000000   1.0000000
B2   B   0.444407054846968   0.555592945153042   0.875000000000000   1.0000000
B2   B   0.944100009725799   0.055899990274182   0.375000000000000   1.0000000
B2   B   0.277772784323681   0.722227215676334   0.875000000000000   1.0000000
B2   B   0.111033446177401   0.222183389755347   0.875000000000000   1.0000000
B2   B   0.444407054846968   0.222147443027254   0.875000000000000   1.0000000
B2   B   0.611146555094993   0.722323369354678   0.875000000000000   1.0000000
B2   B   0.944490476195612   0.722267473714027   0.875000000000000   1.0000000
B2   B   0.777816610244617   0.222183389755348   0.875000000000000   1.0000000
B2   B   0.111801216297156   0.722567274815232   0.375000000000000   1.0000000
B2   B   0.443942534927002   0.724157159979427   0.375000000000000   1.0000000
B2   B   0.268862725438350   0.215147562084691   0.375000000000000   1.0000000
B2   B   0.784852437915308   0.731137274561639   0.375000000000000   1.0000000
B2   B   0.612951503312957   0.215147562084695   0.375000000000000   1.0000000
B2   B   0.944100009725799   0.221533352784972   0.375000000000000   1.0000000
B2   B   0.111060562649607   0.388859397840536   0.875000000000000   1.0000000
B2   B   0.277772784323673   0.888878901980691   0.875000000000000   1.0000000
B2   B   0.611140602159484   0.888939437350421   0.875000000000000   1.0000000
B2   B   0.444360632396384   0.388846982864858   0.875000000000000   1.0000000
B2   B   0.944465501857584   0.888939437350421   0.875000000000000   1.0000000
B2   B   0.111188787801720   0.888811212198277   0.375000000000000   1.0000000
B2   B   0.777843480926359   0.388853444905011   0.875000000000000   1.0000000
B2   B   0.444289091063212   0.888811212198277   0.375000000000000   1.0000000
B2   B   0.268862725438352   0.387048496686987   0.375000000000000   1.0000000
B2   B   0.275842840020582   0.556057465073037   0.375000000000000   1.0000000
B2   B   0.628170048580206   0.371829951419753   0.375000000000000   1.0000000
B2   B   0.779329296386371   0.891991926106180   0.375000000000000   1.0000000
B2   B   0.946242811825348   0.388095512962865   0.375000000000000   1.0000000
B2   B   0.111106432913801   0.555546199160921   0.875000000000000   1.0000000
B2   B   0.277732526285961   0.055509523804378   0.875000000000000   1.0000000
B2   B   0.777852556972729   0.555592945153042   0.875000000000000   1.0000000
B2   B   0.611140602159485   0.055534498142406   0.875000000000000   1.0000000
B2   B   0.944432656124706   0.055567343875269   0.875000000000000   1.0000000
B2   B   0.055484502850710   0.111046083544255   0.124746751748725   1.0000000
B2   B   0.555459353504684   0.611415639745104   0.125439544875740   1.0000000
B2   B   0.388712782175703   0.110758897684755   0.124819810008170   1.0000000
B2   B   0.889241102315251   0.611287217824335   0.124819810008170   1.0000000
B2   B   0.722228247360162   0.111046083544255   0.124746751748725   1.0000000
B2   B   0.055704249535471   0.777833682828897   0.625184257107906   1.0000000
B2   B   0.388796099960095   0.777833682828897   0.625184257107906   1.0000000
B2   B   0.222000643768191   0.277666988550763   0.625251258479015   1.0000000
B2   B   0.722333011449244   0.777999356231810   0.625251258479015   1.0000000
B2   B   0.555459353504684   0.277377047092935   0.624560455124290   1.0000000
B2   B   0.888953916455733   0.277771752639776   0.625253248251249   1.0000000
B2   B   0.222222222222221   0.777777777777779   0.124913317282569   1.0000000
B2   B   0.055484502850709   0.277771752639776   0.124746751748725   1.0000000
B2   B   0.388584360254924   0.277377047092937   0.125439544875740   1.0000000
B2   B   0.555486690632835   0.777944421762832   0.124700758019070   1.0000000
B2   B   0.889124397796694   0.777944421762832   0.124700758019070   1.0000000
B2   B   0.722333011449243   0.277666988550763   0.124748741520950   1.0000000
B2   B   0.055585045857570   0.944414954142420   0.625275758918629   1.0000000
B2   B   0.388796099960095   0.944295750464583   0.625184257107906   1.0000000
B2   B   0.222055578237159   0.444513309367140   0.625299241980976   1.0000000
B2   B   0.555555555555557   0.444444444444443   0.624011582905814   1.0000000
B2   B   0.722228247360193   0.944515497149281   0.625253248251249   1.0000000
B2   B   0.889124397796697   0.444513309367140   0.625299241980976   1.0000000
B2   B   0.055585045857570   0.444503425048457   0.124724241081373   1.0000000
B2   B   0.222166317171102   0.944295750464583   0.124815742892121   1.0000000
B2   B   0.555496574951549   0.944414954142420   0.124724241081373   1.0000000
B2   B   0.388584360254924   0.444540646495334   0.125439544875740   1.0000000
B2   B   0.888953916455732   0.944515497149287   0.124746751748729   1.0000000
B2   B   0.722622952907064   0.444540646495334   0.125439544875740   1.0000000
B2   B   0.222166317171102   0.611203900039949   0.625184257107906   1.0000000
B2   B   0.055484502850710   0.111046083544255   0.625253248251249   1.0000000
B2   B   0.555459353504682   0.611415639745104   0.624560455124290   1.0000000
B2   B   0.388712782175703   0.110758897684756   0.625180189991785   1.0000000
B2   B   0.889241102315252   0.611287217824335   0.625180189991785   1.0000000
B2   B   0.055704249535471   0.611203900039949   0.124815742892121   1.0000000
B2   B   0.722228247360162   0.111046083544255   0.625253248251249   1.0000000
B2   B   0.222055578237160   0.110875602203359   0.124700758019070   1.0000000
B2   B   0.388712782175703   0.611287217824335   0.124819810008170   1.0000000
B2   B   0.722622952907062   0.611415639745104   0.125439544875740   1.0000000
B2   B   0.555486690632838   0.110875602203359   0.124700758019070   1.0000000
B2   B   0.388712782175703   0.611287217824335   0.625180189991785   1.0000000
B2   B   0.888888888888886   0.111111111111114   0.124872224246858   1.0000000
B2   B   0.222222222222221   0.777777777777779   0.625086682717407   1.0000000
B2   B   0.055484502850709   0.277771752639776   0.625253248251249   1.0000000
B2   B   0.388584360254924   0.277377047092935   0.624560455124290   1.0000000
B2   B   0.555486690632835   0.777944421762832   0.625299241980976   1.0000000
B2   B   0.889124397796694   0.777944421762832   0.625299241980976   1.0000000
B2   B   0.722333011449244   0.277666988550763   0.625251258479015   1.0000000
B2   B   0.055704249535471   0.777833682828897   0.124815742892121   1.0000000
B2   B   0.388796099960095   0.777833682828897   0.124815742892121   1.0000000
B2   B   0.222000643768191   0.277666988550763   0.124748741520950   1.0000000
B2   B   0.722333011449244   0.777999356231810   0.124748741520950   1.0000000
B2   B   0.555459353504684   0.277377047092937   0.125439544875740   1.0000000
B2   B   0.888953916455733   0.277771752639776   0.124746751748725   1.0000000
B2   B   0.055585045857570   0.444503425048457   0.625275758918629   1.0000000
B2   B   0.222166317171102   0.944295750464583   0.625184257107906   1.0000000
B2   B   0.555496574951549   0.944414954142420   0.625275758918629   1.0000000
B2   B   0.388584360254924   0.444540646495334   0.624560455124290   1.0000000
B2   B   0.888953916455732   0.944515497149281   0.625253248251249   1.0000000
B2   B   0.055585045857570   0.944414954142420   0.124724241081373   1.0000000
B2   B   0.722622952907064   0.444540646495334   0.624560455124290   1.0000000
B2   B   0.388796099960095   0.944295750464583   0.124815742892121   1.0000000
B2   B   0.222055578237160   0.444513309367140   0.124700758019070   1.0000000
B2   B   0.222166317171102   0.611203900039949   0.124815742892121   1.0000000
B2   B   0.555555555555557   0.444444444444443   0.125988417094189   1.0000000
B2   B   0.722228247360162   0.944515497149287   0.124746751748729   1.0000000
B2   B   0.889124397796694   0.444513309367140   0.124700758019070   1.0000000
B2   B   0.055704249535471   0.611203900039949   0.625184257107906   1.0000000
B2   B   0.222055578237160   0.110875602203359   0.625299241980976   1.0000000
B2   B   0.722622952907064   0.611415639745104   0.624560455124290   1.0000000
B2   B   0.555486690632838   0.110875602203359   0.625299241980976   1.0000000
B2   B   0.888888888888886   0.111111111111114   0.625127775753201   1.0000000


