data_1
_audit_creation_method   'vasp2cif'
_cell_length_a    14.93631414619966
_cell_length_b    14.936314146199727
_cell_length_c    13.341276283792837
_cell_angle_alpha    90.0
_cell_angle_beta    90.0
_cell_angle_gamma    119.99999999999984

_symmetry_space_group_name_H-M    'P 1'
loop_
_atom_site_label
_atom_site_type_symbol
_atom_site_fract_x
_atom_site_fract_y
_atom_site_fract_z
_atom_site_occupancy
C2   C   0.444444444444443   0.388888888888886   0.375000000000000   1.0000000
N2   N   0.111119180425979   0.055549924874460   0.125144206204382   1.0000000
N2   N   0.611104425581314   0.555540162714512   0.125366566211518   1.0000000
N2   N   0.444430744448482   0.055549924874460   0.125144206204382   1.0000000
N2   N   0.944452269553525   0.555563308272766   0.125107310555416   1.0000000
N2   N   0.777777777777779   0.055555555555557   0.125106567614184   1.0000000
N2   N   0.111111111111114   0.722222222222221   0.624902276323408   1.0000000
N2   N   0.444430744448482   0.722214152907357   0.624855793795618   1.0000000
N2   N   0.277793170618824   0.222228907752022   0.624633433788482   1.0000000
N2   N   0.777783408458875   0.722214152907357   0.624855793795618   1.0000000
N2   N   0.611102885592016   0.222230447741320   0.624825304715905   1.0000000
N2   N   0.944456184516346   0.222234414077139   0.624886790756256   1.0000000
N2   N   0.277770025060570   0.722222294614096   0.125107310555416   1.0000000
N2   N   0.111127562149312   0.222230447741320   0.125174695284095   1.0000000
N2   N   0.444435737133199   0.222228907752022   0.125366566211518   1.0000000
N2   N   0.611102885592016   0.722205771184024   0.125174695284095   1.0000000
N2   N   0.944452269553525   0.722222294614096   0.125107310555416   1.0000000
N2   N   0.777778229560793   0.222234414077139   0.125113209243744   1.0000000
N2   N   0.111111038719240   0.888881063779803   0.624892689444584   1.0000000
N2   N   0.444431077840471   0.888882205586900   0.624893105753645   1.0000000
N2   N   0.277793170618824   0.388897596200130   0.624633433788482   1.0000000
N2   N   0.611104425581314   0.388897596200130   0.624633433788482   1.0000000
N2   N   0.777778229560793   0.888877148816982   0.624886790756256   1.0000000
N2   N   0.944451127746429   0.388902255492858   0.624893105753645   1.0000000
N2   N   0.111119180425979   0.388902588884847   0.125144206204382   1.0000000
N2   N   0.277770025060570   0.888881063779803   0.125107310555416   1.0000000
N2   N   0.611098919256197   0.888877148816982   0.125113209243744   1.0000000
N2   N   0.444444444444443   0.388888888888886   0.125445457347871   1.0000000
N2   N   0.944451127746429   0.888882205586900   0.125106894246355   1.0000000
N2   N   0.777783408458875   0.388902588884847   0.125144206204382   1.0000000
N2   N   0.277772845992637   0.555560487340699   0.624828354957022   1.0000000
N2   N   0.111119180425979   0.055549924874460   0.624855793795618   1.0000000
N2   N   0.611104425581314   0.555540162714512   0.624633433788482   1.0000000
N2   N   0.444430744448482   0.055549924874460   0.624855793795618   1.0000000
N2   N   0.944452269553525   0.555563308272766   0.624892689444584   1.0000000
N2   N   0.111111038719240   0.555563308272766   0.125107310555416   1.0000000
N2   N   0.777777777777779   0.055555555555557   0.624893432385816   1.0000000
N2   N   0.277772845992637   0.055545691985274   0.125171645042978   1.0000000
N2   N   0.444435737133199   0.555540162714512   0.125366566211518   1.0000000
N2   N   0.777787641348062   0.555560487340699   0.125171645042978   1.0000000
N2   N   0.611098919256197   0.055555103772543   0.125113209243744   1.0000000
N2   N   0.444435737133199   0.555540162714512   0.624633433788482   1.0000000
N2   N   0.944456184516346   0.055555103772543   0.125113209243744   1.0000000
N2   N   0.277770025060570   0.722222294614096   0.624892689444584   1.0000000
N2   N   0.111127562149312   0.222230447741320   0.624825304715905   1.0000000
N2   N   0.444435737133199   0.222228907752022   0.624633433788482   1.0000000
N2   N   0.611102885592016   0.722205771184024   0.624825304715905   1.0000000
N2   N   0.944452269553525   0.722222294614096   0.624892689444584   1.0000000
N2   N   0.777778229560793   0.222234414077139   0.624886790756256   1.0000000
N2   N   0.111111111111114   0.722222222222221   0.125097723676592   1.0000000
N2   N   0.444430744448482   0.722214152907357   0.125144206204382   1.0000000
N2   N   0.277793170618824   0.222228907752022   0.125366566211518   1.0000000
N2   N   0.777783408458875   0.722214152907357   0.125144206204382   1.0000000
N2   N   0.611102885592016   0.222230447741320   0.125174695284095   1.0000000
N2   N   0.944456184516346   0.222234414077139   0.125113209243744   1.0000000
N2   N   0.111119180425979   0.388902588884847   0.624855793795618   1.0000000
N2   N   0.277770025060570   0.888881063779803   0.624892689444584   1.0000000
N2   N   0.611098919256197   0.888877148816982   0.624886790756256   1.0000000
N2   N   0.444444444444443   0.388888888888886   0.624554542652129   1.0000000
N2   N   0.944451127746429   0.888882205586900   0.624893105753645   1.0000000
N2   N   0.111111038719240   0.888881063779803   0.125107310555416   1.0000000
N2   N   0.777783408458875   0.388902588884847   0.624855793795618   1.0000000
N2   N   0.444431077840471   0.888882205586900   0.125106894246355   1.0000000
N2   N   0.277793170618824   0.388897596200130   0.125366566211518   1.0000000
N2   N   0.277772845992637   0.555560487340699   0.125171645042978   1.0000000
N2   N   0.611104425581314   0.388897596200130   0.125366566211518   1.0000000
N2   N   0.777778229560793   0.888877148816982   0.125113209243744   1.0000000
N2   N   0.944451127746429   0.388902255492858   0.125106894246355   1.0000000
N2   N   0.111111038719240   0.555563308272766   0.624892689444584   1.0000000
N2   N   0.277772845992637   0.055545691985274   0.624828354957022   1.0000000
N2   N   0.777787641348062   0.555560487340699   0.624828354957022   1.0000000
N2   N   0.611098919256197   0.055555103772543   0.624886790756256   1.0000000
N2   N   0.944456184516346   0.055555103772543   0.624886790756256   1.0000000
N2   N   0.055719524008247   0.111244308762629   0.375000000000000   1.0000000
N2   N   0.555531359027072   0.611062718054143   0.375000000000000   1.0000000
N2   N   0.389310415305766   0.113021431559683   0.375000000000000   1.0000000
N2   N   0.888111352923037   0.610722343128189   0.375000000000000   1.0000000
N2   N   0.722194190934639   0.111139142398697   0.375000000000000   1.0000000
N2   N   0.055553607843561   0.777779725489775   0.875000000000000   1.0000000
N2   N   0.388894819932310   0.777779506781861   0.875000000000000   1.0000000
N2   N   0.222224012787768   0.277778673060552   0.875000000000000   1.0000000
N2   N   0.722220768787827   0.777778520274083   0.875000000000000   1.0000000
N2   N   0.555554660272784   0.277778673060552   0.875000000000000   1.0000000
N2   N   0.888887940959864   0.277775881919734   0.875000000000000   1.0000000
N2   N   0.222383471329465   0.777858402331400   0.375000000000000   1.0000000
N2   N   0.055719524008247   0.277808548578953   0.375000000000000   1.0000000
N2   N   0.391873215496987   0.283746430993980   0.375000000000000   1.0000000
N2   N   0.555524784754383   0.777613809325089   0.375000000000000   1.0000000
N2   N   0.888360294709723   0.777395983820822   0.375000000000000   1.0000000
N2   N   0.722089024570707   0.277808548578953   0.375000000000000   1.0000000
N2   N   0.055553826551474   0.944448646483783   0.875000000000000   1.0000000
N2   N   0.388894819932310   0.944448646483783   0.875000000000000   1.0000000
N2   N   0.222224585107448   0.444439579721649   0.875000000000000   1.0000000
N2   N   0.555551228380794   0.444442280857061   0.875000000000000   1.0000000
N2   N   0.722222187808365   0.944444375616729   0.875000000000000   1.0000000
N2   N   0.888884686849545   0.444438513401019   0.875000000000000   1.0000000
N2   N   0.055937349512514   0.444297644222237   0.375000000000000   1.0000000
N2   N   0.222610990205146   0.945221980410292   0.375000000000000   1.0000000
N2   N   0.555506313806526   0.944419823569927   0.375000000000000   1.0000000
N2   N   0.391873215496987   0.441460117836342   0.375000000000000   1.0000000
N2   N   0.888913509763401   0.944419823569927   0.375000000000000   1.0000000
N2   N   0.720311901773653   0.444022918027563   0.375000000000000   1.0000000
N2   N   0.222225375130419   0.611107958202916   0.875000000000000   1.0000000
N2   N   0.055554813059253   0.111112564545509   0.875000000000000   1.0000000
N2   N   0.555554660272784   0.611109320545567   0.875000000000000   1.0000000
N2   N   0.388893753611679   0.111118338719135   0.875000000000000   1.0000000
N2   N   0.888882583072490   0.611107958202916   0.875000000000000   1.0000000
N2   N   0.055474931001935   0.610949862003870   0.375000000000000   1.0000000
N2   N   0.722222187808365   0.111111145524971   0.875000000000000   1.0000000
N2   N   0.223711016253910   0.113021431559683   0.375000000000000   1.0000000
N2   N   0.389310415305766   0.609622317079426   0.375000000000000   1.0000000
N2   N   0.720311901773653   0.609622317079426   0.375000000000000   1.0000000
N2   N   0.555524784754383   0.111244308762629   0.375000000000000   1.0000000
N2   N   0.388893753611679   0.611108748225887   0.875000000000000   1.0000000
N2   N   0.888944951464050   0.111139142398697   0.375000000000000   1.0000000
N2   N   0.222226117646214   0.777779725489775   0.875000000000000   1.0000000
N2   N   0.055554813059253   0.277775581847080   0.875000000000000   1.0000000
N2   N   0.388891052476267   0.277782104952542   0.875000000000000   1.0000000
N2   N   0.555557751486256   0.777778520274083   0.875000000000000   1.0000000
N2   N   0.888884686849545   0.777779506781861   0.875000000000000   1.0000000
N2   N   0.722220768787827   0.277775581847080   0.875000000000000   1.0000000
N2   N   0.055474931001935   0.777858402331400   0.375000000000000   1.0000000
N2   N   0.389035689111092   0.777395983820822   0.375000000000000   1.0000000
N2   N   0.222270615279192   0.277801974306264   0.375000000000000   1.0000000
N2   N   0.722089024570707   0.777613809325089   0.375000000000000   1.0000000
N2   N   0.555531359027072   0.277801974306264   0.375000000000000   1.0000000
N2   N   0.888913509763401   0.277827019526810   0.375000000000000   1.0000000
N2   N   0.055553826551474   0.444438513401019   0.875000000000000   1.0000000
N2   N   0.222225375130419   0.944450750260839   0.875000000000000   1.0000000
N2   N   0.555557451413601   0.944445392373465   0.875000000000000   1.0000000
N2   N   0.388891052476267   0.444442280857061   0.875000000000000   1.0000000
N2   N   0.888887940959864   0.944445392373465   0.875000000000000   1.0000000
N2   N   0.055937349512514   0.944973038623606   0.375000000000000   1.0000000
N2   N   0.722214994614201   0.444439579721649   0.875000000000000   1.0000000
N2   N   0.389035689111092   0.944973038623606   0.375000000000000   1.0000000
N2   N   0.223711016253910   0.444022918027563   0.375000000000000   1.0000000
N2   N   0.222610990205146   0.610722343128189   0.375000000000000   1.0000000
N2   N   0.549586902339355   0.441460117836342   0.375000000000000   1.0000000
N2   N   0.722194190934639   0.944388381869279   0.375000000000000   1.0000000
N2   N   0.888360294709723   0.444297644222237   0.375000000000000   1.0000000
N2   N   0.055553607843561   0.611107215687121   0.875000000000000   1.0000000
N2   N   0.222224585107448   0.111118338719135   0.875000000000000   1.0000000
N2   N   0.722214994614201   0.611108748225887   0.875000000000000   1.0000000
N2   N   0.555557751486256   0.111112564545509   0.875000000000000   1.0000000
N2   N   0.888888957716599   0.111111145524971   0.875000000000000   1.0000000
B2   B   0.111439155551749   0.056053720990982   0.375000000000000   1.0000000
B2   B   0.610012436102087   0.555930884405589   0.375000000000000   1.0000000
B2   B   0.444614565439233   0.056053720990982   0.375000000000000   1.0000000
B2   B   0.944248396422274   0.555452586626482   0.375000000000000   1.0000000
B2   B   0.777777777777779   0.055555555555557   0.375000000000000   1.0000000
B2   B   0.111111111111114   0.722222222222221   0.875000000000000   1.0000000
B2   B   0.444454079817166   0.722255952722755   0.875000000000000   1.0000000
B2   B   0.277741288485485   0.222191491435149   0.875000000000000   1.0000000
B2   B   0.777801872905589   0.722255952722755   0.875000000000000   1.0000000
B2   B   0.611135297247089   0.222198036086247   0.875000000000000   1.0000000
B2   B   0.944420243752005   0.222207454546316   0.875000000000000   1.0000000
B2   B   0.277880746706853   0.722129143129127   0.375000000000000   1.0000000
B2   B   0.110144439805809   0.221738886569569   0.375000000000000   1.0000000
B2   B   0.445918448303503   0.223320897231249   0.375000000000000   1.0000000
B2   B   0.611594446763767   0.723188893527527   0.375000000000000   1.0000000
B2   B   0.944248396422274   0.722129143129127   0.375000000000000   1.0000000
B2   B   0.777893867158694   0.222144700868011   0.375000000000000   1.0000000
B2   B   0.111100345090281   0.888877528283991   0.875000000000000   1.0000000
B2   B   0.444455082306264   0.888894207819796   0.875000000000000   1.0000000
B2   B   0.277741288485485   0.388883130383664   0.875000000000000   1.0000000
B2   B   0.611141841898187   0.388883130383664   0.875000000000000   1.0000000
B2   B   0.777787210794311   0.888913089581323   0.875000000000000   1.0000000
B2   B   0.944439125513532   0.388878251027065   0.875000000000000   1.0000000
B2   B   0.111439155551749   0.388718767894095   0.375000000000000   1.0000000
B2   B   0.277880746706853   0.889084936911055   0.375000000000000   1.0000000
B2   B   0.611188632465325   0.889082499624012   0.375000000000000   1.0000000
B2   B   0.944433083227285   0.888900250106043   0.375000000000000   1.0000000
B2   B   0.777279612342353   0.388718767894095   0.375000000000000   1.0000000
B2   B   0.277762447937320   0.555570885396016   0.875000000000000   1.0000000
B2   B   0.111077380610580   0.055531460427746   0.875000000000000   1.0000000
B2   B   0.611141841898187   0.555592044847851   0.875000000000000   1.0000000
B2   B   0.444454079817166   0.055531460427746   0.875000000000000   1.0000000
B2   B   0.944455805049337   0.555556150139619   0.875000000000000   1.0000000
B2   B   0.111204190204209   0.555452586626482   0.375000000000000   1.0000000
B2   B   0.777777777777779   0.055555555555557   0.875000000000000   1.0000000
B2   B   0.278035172939811   0.056070345879622   0.375000000000000   1.0000000
B2   B   0.445918448303503   0.555930884405589   0.375000000000000   1.0000000
B2   B   0.777262987453714   0.555298160393525   0.375000000000000   1.0000000
B2   B   0.611188632465325   0.055439466174642   0.375000000000000   1.0000000
B2   B   0.444450202949665   0.555592044847851   0.875000000000000   1.0000000
B2   B   0.944250833709317   0.055439466174642   0.375000000000000   1.0000000
B2   B   0.277777183193717   0.722232988243055   0.875000000000000   1.0000000
B2   B   0.111062738839165   0.222198036086247   0.875000000000000   1.0000000
B2   B   0.444450202949665   0.222191491435149   0.875000000000000   1.0000000
B2   B   0.611135297247089   0.722270594494171   0.875000000000000   1.0000000
B2   B   0.944455805049337   0.722232988243055   0.875000000000000   1.0000000
B2   B   0.777787210794311   0.222207454546316   0.875000000000000   1.0000000
B2   B   0.111111111111114   0.722222222222221   0.375000000000000   1.0000000
B2   B   0.444614565439233   0.721894177781587   0.375000000000000   1.0000000
B2   B   0.277402448927746   0.223320897231249   0.375000000000000   1.0000000
B2   B   0.777279612342353   0.721894177781587   0.375000000000000   1.0000000
B2   B   0.611594446763767   0.221738886569569   0.375000000000000   1.0000000
B2   B   0.944250833709317   0.222144700868011   0.375000000000000   1.0000000
B2   B   0.111077380610580   0.388879253516162   0.875000000000000   1.0000000
B2   B   0.277777183193717   0.888877528283991   0.875000000000000   1.0000000
B2   B   0.611125878787019   0.888913089581323   0.875000000000000   1.0000000
B2   B   0.444444444444443   0.388888888888886   0.875000000000000   1.0000000
B2   B   0.944439125513532   0.888894207819796   0.875000000000000   1.0000000
B2   B   0.111204190204209   0.889084936911055   0.375000000000000   1.0000000
B2   B   0.777801872905589   0.388879253516162   0.875000000000000   1.0000000
B2   B   0.444467166878758   0.888900250106043   0.375000000000000   1.0000000
B2   B   0.277402448927746   0.387414885029826   0.375000000000000   1.0000000
B2   B   0.278035172939811   0.555298160393525   0.375000000000000   1.0000000
B2   B   0.610012436102087   0.387414885029826   0.375000000000000   1.0000000
B2   B   0.777893867158694   0.889082499624012   0.375000000000000   1.0000000
B2   B   0.944433083227285   0.388866166454571   0.375000000000000   1.0000000
B2   B   0.111100345090281   0.555556150139619   0.875000000000000   1.0000000
B2   B   0.277762447937320   0.055524895874639   0.875000000000000   1.0000000
B2   B   0.777808437458696   0.555570885396016   0.875000000000000   1.0000000
B2   B   0.611125878787019   0.055546122539025   0.875000000000000   1.0000000
B2   B   0.944420243752005   0.055546122539025   0.875000000000000   1.0000000
B2   B   0.055489905773380   0.111042938277348   0.124866718785040   1.0000000
B2   B   0.555616037284202   0.611232074568405   0.124763256409711   1.0000000
B2   B   0.388830640848754   0.110955268600129   0.124832798549288   1.0000000
B2   B   0.888999877404381   0.611166605368862   0.124889095453441   1.0000000
B2   B   0.722230768769853   0.111102564563483   0.124909967126754   1.0000000
B2   B   0.055572427345507   0.777760905987829   0.625083027321341   1.0000000
B2   B   0.388844143554332   0.777804743093144   0.625102993822229   1.0000000
B2   B   0.222101258764931   0.277717296049133   0.625236743590289   1.0000000
B2   B   0.722290395055987   0.777843427559956   0.625133281214960   1.0000000
B2   B   0.555616037284202   0.277717296049133   0.625236743590289   1.0000000
B2   B   0.888898423335921   0.277796846671849   0.625094747418136   1.0000000
B2   B   0.222188478642321   0.777760905987829   0.124916972678659   1.0000000
B2   B   0.055489905773380   0.277780300829367   0.124866718785040   1.0000000
B2   B   0.388841084666914   0.277682169333835   0.124534964633896   1.0000000
B2   B   0.555553032503968   0.777843427559956   0.124866718785040   1.0000000
B2   B   0.888960599538803   0.777804743093144   0.124897006177771   1.0000000
B2   B   0.722290395055987   0.277780300829367   0.124866718785040   1.0000000
B2   B   0.055528590240192   0.944372733794525   0.625102993822229   1.0000000
B2   B   0.388844143554332   0.944372733794525   0.625102993822229   1.0000000
B2   B   0.222124627751368   0.444502692484575   0.625167201450712   1.0000000
B2   B   0.555651163999500   0.444492248666414   0.625465035366104   1.0000000
B2   B   0.722230768769853   0.944461537539706   0.625090032873246   1.0000000
B2   B   0.888960599538803   0.444489189778996   0.625102993822229   1.0000000
B2   B   0.055528590240192   0.444489189778996   0.124897006177771   1.0000000
B2   B   0.222166727964474   0.944333455928948   0.124889095453441   1.0000000
B2   B   0.555536486661487   0.944434909997408   0.124905252581864   1.0000000
B2   B   0.388841084666914   0.444492248666414   0.124534964633896   1.0000000
B2   B   0.888898423335921   0.944434909997408   0.124905252581864   1.0000000
B2   B   0.722378064733206   0.444502692484575   0.124832798549288   1.0000000
B2   B   0.222166727964474   0.611166605368862   0.625110904546559   1.0000000
B2   B   0.055489905773380   0.111042938277348   0.625133281214960   1.0000000
B2   B   0.555616037284202   0.611232074568405   0.625236743590289   1.0000000
B2   B   0.388830640848754   0.110955268600129   0.625167201450712   1.0000000
B2   B   0.888999877404381   0.611166605368862   0.625110904546559   1.0000000
B2   B   0.055572427345507   0.611144854691014   0.124916972678659   1.0000000
B2   B   0.722230768769853   0.111102564563483   0.625090032873246   1.0000000
B2   B   0.222124627751368   0.110955268600129   0.124832798549288   1.0000000
B2   B   0.388830640848754   0.611208705581968   0.124832798549288   1.0000000
B2   B   0.722378064733206   0.611208705581968   0.124832798549288   1.0000000
B2   B   0.555553032503968   0.111042938277348   0.124866718785040   1.0000000
B2   B   0.388830640848754   0.611208705581968   0.625167201450712   1.0000000
B2   B   0.888871795793623   0.111102564563483   0.124909967126754   1.0000000
B2   B   0.222188478642321   0.777760905987829   0.625083027321341   1.0000000
B2   B   0.055489905773380   0.277780300829367   0.625133281214960   1.0000000
B2   B   0.388841084666914   0.277682169333835   0.625465035366104   1.0000000
B2   B   0.555553032503968   0.777843427559956   0.625133281214960   1.0000000
B2   B   0.888960599538803   0.777804743093144   0.625102993822229   1.0000000
B2   B   0.722290395055987   0.277780300829367   0.625133281214960   1.0000000
B2   B   0.055572427345507   0.777760905987829   0.124916972678659   1.0000000
B2   B   0.388844143554332   0.777804743093144   0.124897006177771   1.0000000
B2   B   0.222101258764931   0.277717296049133   0.124763256409711   1.0000000
B2   B   0.722290395055987   0.777843427559956   0.124866718785040   1.0000000
B2   B   0.555616037284202   0.277717296049133   0.124763256409711   1.0000000
B2   B   0.888898423335921   0.277796846671849   0.124905252581864   1.0000000
B2   B   0.055528590240192   0.444489189778996   0.625102993822229   1.0000000
B2   B   0.222166727964474   0.944333455928948   0.625110904546559   1.0000000
B2   B   0.555536486661487   0.944434909997408   0.625094747418136   1.0000000
B2   B   0.388841084666914   0.444492248666414   0.625465035366104   1.0000000
B2   B   0.888898423335921   0.944434909997408   0.625094747418136   1.0000000
B2   B   0.055528590240192   0.944372733794525   0.124897006177771   1.0000000
B2   B   0.722378064733206   0.444502692484575   0.625167201450712   1.0000000
B2   B   0.388844143554332   0.944372733794525   0.124897006177771   1.0000000
B2   B   0.222124627751368   0.444502692484575   0.124832798549288   1.0000000
B2   B   0.222166727964474   0.611166605368862   0.124889095453441   1.0000000
B2   B   0.555651163999500   0.444492248666414   0.124534964633896   1.0000000
B2   B   0.722230768769853   0.944461537539706   0.124909967126754   1.0000000
B2   B   0.888960599538803   0.444489189778996   0.124897006177771   1.0000000
B2   B   0.055572427345507   0.611144854691014   0.625083027321341   1.0000000
B2   B   0.222124627751368   0.110955268600129   0.625167201450712   1.0000000
B2   B   0.722378064733206   0.611208705581968   0.625167201450712   1.0000000
B2   B   0.555553032503968   0.111042938277348   0.625133281214960   1.0000000
B2   B   0.888871795793623   0.111102564563483   0.625090032873246   1.0000000


