data_1
_audit_creation_method   'vasp2cif'
_cell_length_a    17.52789999999977
_cell_length_b    17.52789999999977
_cell_length_c    15.0
_cell_angle_alpha    90.0
_cell_angle_beta    90.0
_cell_angle_gamma    119.99999999999916

_symmetry_space_group_name_H-M    'P 1'
loop_
_atom_site_label
_atom_site_type_symbol
_atom_site_fract_x
_atom_site_fract_y
_atom_site_fract_z
_atom_site_occupancy
B2   B   0.908781880563210   0.953541701582768   0.110713423321842   1.0000000
B2   B   0.908805561070640   0.095555803290485   0.110775646639135   1.0000000
B2   B   0.908855798597611   0.237665553168927   0.110726539567298   1.0000000
B2   B   0.908915985586655   0.380162275487754   0.110675349787552   1.0000000
B2   B   0.908401872153387   0.522988887682111   0.110742963871449   1.0000000
B2   B   0.907348391626372   0.665640463363837   0.110788449823698   1.0000000
B2   B   0.904349949399810   0.807273355754845   0.110723241909965   1.0000000
B2   B   0.050481908779682   0.953853901886965   0.110693466791322   1.0000000
B2   B   0.052616532136683   0.097430545052752   0.110791073013570   1.0000000
B2   B   0.052046262264681   0.238968476524971   0.110824798608475   1.0000000
B2   B   0.050905630891331   0.381247508268189   0.110714451685939   1.0000000
B2   B   0.049560784173362   0.524439995183789   0.110701700560231   1.0000000
B2   B   0.049247213936172   0.667707372531287   0.110747611852124   1.0000000
B2   B   0.049088964030100   0.810650742834648   0.110745546752845   1.0000000
B2   B   0.193321293807587   0.955270175652533   0.110692381540609   1.0000000
B2   B   0.196576697083295   0.100143861809327   0.110729531739281   1.0000000
B2   B   0.196793589663912   0.241839027032839   0.110785389574754   1.0000000
B2   B   0.193821044602932   0.382447467235745   0.110726502657948   1.0000000
B2   B   0.190176327482907   0.525357729085235   0.110671492535170   1.0000000
B2   B   0.190157173075122   0.668849590946122   0.110746964383935   1.0000000
B2   B   0.191789787500403   0.811921750484584   0.110747260387159   1.0000000
B2   B   0.335555143193136   0.955117509736013   0.110734318036387   1.0000000
B2   B   0.337651843157331   0.099058961304008   0.110751552630446   1.0000000
B2   B   0.344300761530829   0.247685396660414   0.110790423070548   1.0000000
B2   B   0.340364532631985   0.385837162859300   0.110779588328323   1.0000000
B2   B   0.329971156073308   0.527307610715152   0.110700236219625   1.0000000
B2   B   0.329976019159304   0.670041704819361   0.110724115276545   1.0000000
B2   B   0.334038304368672   0.812421820939815   0.110801496966169   1.0000000
B2   B   0.478024133439217   0.953580326593720   0.110762822724155   1.0000000
B2   B   0.479414934209525   0.095838548483485   0.110770429980171   1.0000000
B2   B   0.481527803087904   0.238837910717705   0.110823778439883   1.0000000
B2   B   0.499071754528592   0.394384147189281   0.110819434193872   1.0000000
B2   B   0.467614091120778   0.667869086655384   0.110677138369597   1.0000000
B2   B   0.476613860251842   0.811317785410995   0.110741585776971   1.0000000
B2   B   0.621109302074664   0.953685102909152   0.110747023722575   1.0000000
B2   B   0.622137166308026   0.094549654521186   0.110734367496185   1.0000000
B2   B   0.623245669953308   0.235205909542080   0.110748440769728   1.0000000
B2   B   0.625636010601692   0.374790084676499   0.110835235079723   1.0000000
B2   B   0.613512275178833   0.500938353262484   0.110759044520705   1.0000000
B2   B   0.620476618686926   0.813036254378210   0.110668780743145   1.0000000
B2   B   0.764904965581638   0.952834420324392   0.110726838563629   1.0000000
B2   B   0.765418924947176   0.094793325392257   0.110718904014524   1.0000000
B2   B   0.766109646538691   0.236589448986144   0.110679180443533   1.0000000
B2   B   0.767190739607467   0.378470370168863   0.110717268106767   1.0000000
B2   B   0.766316095396800   0.519797481003604   0.110761303370936   1.0000000
B2   B   0.760947510600837   0.657187435445879   0.110767085928260   1.0000000
B2   B   0.765368743829103   0.811225875086106   0.110682602682255   1.0000000
Al2   Al   0.615311161575935   0.658384380170385   0.110665762370133   1.0000000
N2   N   0.954438825657309   0.904227135330236   0.110671458095003   1.0000000
N2   N   0.957126876393725   0.048897535871325   0.110748120857827   1.0000000
N2   N   0.956759053354716   0.190674222876408   0.110773663306168   1.0000000
N2   N   0.956267286406787   0.332758128421066   0.110680488608004   1.0000000
N2   N   0.955473197985916   0.475446721948925   0.110694144501189   1.0000000
N2   N   0.954974341034241   0.618551452577190   0.110749109641387   1.0000000
N2   N   0.953726958037389   0.761394705136730   0.110743052350742   1.0000000
N2   N   0.097808408166652   0.906375059910612   0.110683517267841   1.0000000
N2   N   0.100160050133042   0.050190951759642   0.110708384457497   1.0000000
N2   N   0.100846496437411   0.192777216878109   0.110809415129556   1.0000000
N2   N   0.098832735347485   0.334022829237980   0.110760065744301   1.0000000
N2   N   0.096251810030795   0.476490940569430   0.110667902814971   1.0000000
N2   N   0.095945081696371   0.619902934850013   0.110715323906703   1.0000000
N2   N   0.096678201699394   0.763266833686165   0.110731920853482   1.0000000
N2   N   0.240228940349864   0.907265258545460   0.110693608814752   1.0000000
N2   N   0.242230586099819   0.050900693242095   0.110692949339381   1.0000000
N2   N   0.246491465960748   0.196628058076593   0.110757949958058   1.0000000
N2   N   0.243966754524195   0.336973463264675   0.110737726380585   1.0000000
N2   N   0.236732265179870   0.477340050797461   0.110631520075080   1.0000000
N2   N   0.236049136903047   0.620756246176004   0.110678748117425   1.0000000
N2   N   0.238791773545540   0.764205404852161   0.110756291665076   1.0000000
N2   N   0.382665017711817   0.907244479848903   0.110750865681442   1.0000000
N2   N   0.384087400221630   0.050057396516734   0.110732103789269   1.0000000
N2   N   0.386551049953201   0.194408833551077   0.110779973360009   1.0000000
N2   N   0.396206287692189   0.345847450938522   0.110781070418888   1.0000000
N2   N   0.377471649567480   0.480641424444102   0.110763812628408   1.0000000
N2   N   0.374448864409212   0.621787615015490   0.110690806906858   1.0000000
N2   N   0.380917750837810   0.764871639037419   0.110751281291324   1.0000000
N2   N   0.525510044430499   0.906193783922612   0.110730709499497   1.0000000
N2   N   0.526751532436331   0.048090100106210   0.110739318501212   1.0000000
N2   N   0.528123384728159   0.189938331992205   0.110773306016763   1.0000000
N2   N   0.531188267076199   0.332325309691348   0.110838779209419   1.0000000
N2   N   0.465882289173898   0.524262350579716   0.111042284157137   1.0000000
N2   N   0.503224408059636   0.612287432022258   0.110670016693041   1.0000000
N2   N   0.523499409424872   0.763346014129759   0.110624225445820   1.0000000
N2   N   0.669061866334094   0.907416662943637   0.110706387406790   1.0000000
N2   N   0.670018806869527   0.047955546781989   0.110708308894436   1.0000000
N2   N   0.670985665284976   0.188626268061702   0.110685809955667   1.0000000
N2   N   0.672842295834170   0.328787936949258   0.110762802100623   1.0000000
N2   N   0.672912698714286   0.467770820350258   0.110762138414404   1.0000000
N2   N   0.666381671854131   0.597969646725763   0.110693610535905   1.0000000
N2   N   0.672095831972089   0.771531478990660   0.110591277410264   1.0000000
N2   N   0.813986499503050   0.906428169495818   0.110680706280760   1.0000000
N2   N   0.813389398681863   0.047848684460628   0.110715155178616   1.0000000
N2   N   0.813795441689464   0.189609041763415   0.110675253279438   1.0000000
N2   N   0.814476345418270   0.331415719022575   0.110651607598171   1.0000000
N2   N   0.814490422978173   0.473478160457095   0.110720513641393   1.0000000
N2   N   0.813213309509430   0.615384685966405   0.110780105389715   1.0000000
N2   N   0.807841310540901   0.757088918524604   0.110707993808632   1.0000000


