data_1
_audit_creation_method   'vasp2cif'
_cell_length_a    17.52789999999977
_cell_length_b    17.52789999999977
_cell_length_c    15.0
_cell_angle_alpha    90.0
_cell_angle_beta    90.0
_cell_angle_gamma    119.99999999999916

_symmetry_space_group_name_H-M    'P 1'
loop_
_atom_site_label
_atom_site_type_symbol
_atom_site_fract_x
_atom_site_fract_y
_atom_site_fract_z
_atom_site_occupancy
B2   B   0.905306388257630   0.952827840232876   0.118368873629184   1.0000000
B2   B   0.905633205185011   0.095747478195133   0.118598934538488   1.0000000
B2   B   0.905662344960355   0.238444202805446   0.118625825287649   1.0000000
B2   B   0.905326340429544   0.381034035810784   0.118443970190601   1.0000000
B2   B   0.904641038324733   0.523695524289440   0.116045750650447   1.0000000
B2   B   0.904388562350625   0.666466132339061   0.114398985149962   1.0000000
B2   B   0.904625968457015   0.809485307745065   0.116001025240892   1.0000000
B2   B   0.047706479365421   0.952359680382809   0.120011218765472   1.0000000
B2   B   0.048530806024665   0.095755020389580   0.118615484338474   1.0000000
B2   B   0.048804140388940   0.238662200554340   0.117237854486927   1.0000000
B2   B   0.048539706846244   0.381322378600880   0.118684054377936   1.0000000
B2   B   0.047693015193585   0.523915311199248   0.120064185168334   1.0000000
B2   B   0.047237793149264   0.666548434218974   0.119656535201623   1.0000000
B2   B   0.047234285093152   0.809272348401119   0.119639180677561   1.0000000
B2   B   0.190133960511305   0.951933329558481   0.119827669064018   1.0000000
B2   B   0.190831924491412   0.095130023799353   0.117055403452226   1.0000000
B2   B   0.191856388802720   0.238742267557561   0.111670133847137   1.0000000
B2   B   0.191850886172252   0.381695125086345   0.111687001606219   1.0000000
B2   B   0.190781172475076   0.524282335540228   0.117111321179995   1.0000000
B2   B   0.190128483416319   0.666811481023667   0.119891211798244   1.0000000
B2   B   0.190020526222956   0.809325319055030   0.120066788940108   1.0000000
B2   B   0.332933896319517   0.951882015445173   0.119866293129220   1.0000000
B2   B   0.332951445688832   0.094140679364742   0.116068650486943   1.0000000
B2   B   0.333584341092792   0.237030270886939   0.103924352906909   1.0000000
B2   B   0.334824988250011   0.381756224531097   0.092598445596775   1.0000000
B2   B   0.333511183930177   0.525169985064864   0.103973460589418   1.0000000
B2   B   0.332916143774755   0.667407193637314   0.116127994149604   1.0000000
B2   B   0.332918094461475   0.809665561349561   0.119914450178956   1.0000000
B2   B   0.476046337121375   0.952326245883298   0.120053660418556   1.0000000
B2   B   0.476007063327252   0.093904494671198   0.118397111205490   1.0000000
B2   B   0.475721147126750   0.234563070609552   0.108412420133558   1.0000000
B2   B   0.475151578741933   0.368732094008299   0.068689683925234   1.0000000
B2   B   0.474976861564449   0.535037449442791   0.068437557105196   1.0000000
B2   B   0.475671902055048   0.669723597914567   0.108433881151657   1.0000000
B2   B   0.475962577865267   0.810680228098018   0.118407251928482   1.0000000
B2   B   0.619310076742341   0.952888740218820   0.118841615459155   1.0000000
B2   B   0.619334290775095   0.094985907230468   0.118849317297945   1.0000000
B2   B   0.619252404230719   0.236911979682710   0.113677873668649   1.0000000
B2   B   0.618749720973982   0.377882857440759   0.098610512673379   1.0000000
B2   B   0.623567241330411   0.526006898143845   0.088823372265016   1.0000000
B2   B   0.618675712154167   0.669344790706682   0.098565665865944   1.0000000
B2   B   0.619202902566114   0.810853187644507   0.113666468226380   1.0000000
B2   B   0.762477421973949   0.953014150733635   0.117312105406532   1.0000000
B2   B   0.762555748548740   0.095532409163526   0.118552967670739   1.0000000
B2   B   0.762504233854713   0.237984317564642   0.117322401594235   1.0000000
B2   B   0.762331714085677   0.380454971668185   0.111815512771826   1.0000000
B2   B   0.762076268403336   0.523519558177847   0.103851710033943   1.0000000
B2   B   0.762038643699459   0.667039121482936   0.103801689888481   1.0000000
B2   B   0.762291515194693   0.810376891575453   0.111763883534009   1.0000000
Sn2   Sn   0.504784310426332   0.466727490047263   0.952011663867407   1.0000000
N2   N   0.952233055650052   0.904542453243643   0.119004637528218   1.0000000
N2   N   0.953202747648743   0.048046998585623   0.119115316028238   1.0000000
N2   N   0.953533063419746   0.191031081074684   0.118456965016449   1.0000000
N2   N   0.953215574567217   0.333701519893995   0.119191149908053   1.0000000
N2   N   0.952233187568522   0.476242063987635   0.119062687234408   1.0000000
N2   N   0.951553570759724   0.618743035709053   0.117446218214664   1.0000000
N2   N   0.951547860362033   0.761366211750774   0.117438263714741   1.0000000
N2   N   0.094867468764010   0.904433528197028   0.120374174238193   1.0000000
N2   N   0.095729397007255   0.047796810549565   0.119481629214584   1.0000000
N2   N   0.096825390419046   0.191332587133803   0.116561359668774   1.0000000
N2   N   0.096819662356828   0.334027343961886   0.116593456356288   1.0000000
N2   N   0.095696454679135   0.476486370970452   0.119547675892114   1.0000000
N2   N   0.094858516502699   0.619016253348094   0.120404090809227   1.0000000
N2   N   0.094633904483030   0.761616922479264   0.120021965814321   1.0000000
N2   N   0.237721051209361   0.904465811498605   0.119925572858507   1.0000000
N2   N   0.238025122731192   0.047285118560992   0.118243697514462   1.0000000
N2   N   0.239161877050953   0.190845623987749   0.111745812362454   1.0000000
N2   N   0.240813934279344   0.334702882111847   0.106290446474296   1.0000000
N2   N   0.239100285901082   0.476895604392529   0.111793240356277   1.0000000
N2   N   0.237992237095324   0.619332314075971   0.118301472466468   1.0000000
N2   N   0.237708504725852   0.761875450655632   0.119967616701191   1.0000000
N2   N   0.380799773956401   0.904709911010059   0.120217082379936   1.0000000
N2   N   0.380846201329854   0.047100343939132   0.118873799911989   1.0000000
N2   N   0.380949410490455   0.189475841664139   0.109355052168182   1.0000000
N2   N   0.382355634308305   0.332783641861537   0.087480998280077   1.0000000
N2   N   0.382252630258065   0.478204004925240   0.087439074847830   1.0000000
N2   N   0.380900374138596   0.620076004574667   0.109408950995253   1.0000000
N2   N   0.380812088081570   0.762347556098745   0.118910278113793   1.0000000
N2   N   0.524035684573443   0.905343601109575   0.119674978018085   1.0000000
N2   N   0.524056571049974   0.047294825800850   0.119683962479700   1.0000000
N2   N   0.524070588673056   0.189023772370966   0.115253827146056   1.0000000
N2   N   0.524101614030638   0.329151898377530   0.095681323610831   1.0000000
N2   N   0.524034090803834   0.623499229079337   0.095648015500679   1.0000000
N2   N   0.524026692212342   0.763612596246940   0.115254495997101   1.0000000
N2   N   0.667138836411987   0.905396600276089   0.117084945730278   1.0000000
N2   N   0.667232190705791   0.047886380134533   0.119094243963011   1.0000000
N2   N   0.667169348888966   0.190291137660743   0.117095507594342   1.0000000
N2   N   0.666900830742496   0.332650013318621   0.108359077368537   1.0000000
N2   N   0.664452764023896   0.474579063309943   0.094171867376839   1.0000000
N2   N   0.664385745644216   0.618331450496616   0.094112961929087   1.0000000
N2   N   0.666851730031474   0.762745001168920   0.108333668073752   1.0000000
N2   N   0.809868092587561   0.905001731049824   0.116432705767506   1.0000000
N2   N   0.810288126152148   0.048035899785062   0.118376120560975   1.0000000
N2   N   0.810307055687669   0.190772494941959   0.118367771784383   1.0000000
N2   N   0.809890264156839   0.333393559094112   0.116495851231074   1.0000000
N2   N   0.808760969647102   0.475885609994602   0.110458703249832   1.0000000
N2   N   0.808128620331689   0.618327835482398   0.106854674659830   1.0000000
N2   N   0.808731887793844   0.761379717178034   0.110399232164954   1.0000000


