data_1
_audit_creation_method   'vasp2cif'
_cell_length_a    14.93631414619966
_cell_length_b    14.936314146199727
_cell_length_c    13.341276283792837
_cell_angle_alpha    90.0
_cell_angle_beta    90.0
_cell_angle_gamma    119.99999999999984

_symmetry_space_group_name_H-M    'P 1'
loop_
_atom_site_label
_atom_site_type_symbol
_atom_site_fract_x
_atom_site_fract_y
_atom_site_fract_z
_atom_site_occupancy
C2   C   0.441483673021792   0.387408503177560   0.375000000000000   1.0000000
O2   O   0.555946941452289   0.444640137392809   0.375000000000000   1.0000000
N2   N   0.111039507466631   0.055528085420875   0.125010832810369   1.0000000
N2   N   0.610988044269544   0.555456463282927   0.125815614342729   1.0000000
N2   N   0.444398684715212   0.055545772759987   0.125021888877689   1.0000000
N2   N   0.944359519186201   0.555511624043428   0.125015707392535   1.0000000
N2   N   0.777704542188009   0.055518937760673   0.124923575923117   1.0000000
N2   N   0.111041753625464   0.722187543479396   0.625041166460680   1.0000000
N2   N   0.444398684715212   0.722186245288560   0.624978111122310   1.0000000
N2   N   0.277662394199361   0.222199381363443   0.624915920173323   1.0000000
N2   N   0.777695587588825   0.722186692187113   0.624879908916011   1.0000000
N2   N   0.611058220497593   0.222186877215247   0.624949032295801   1.0000000
N2   N   0.944354833604470   0.222180987780753   0.625059208906006   1.0000000
N2   N   0.277720974538695   0.722182482575506   0.124986477402638   1.0000000
N2   N   0.110971186692878   0.222152260013103   0.124878709399706   1.0000000
N2   N   0.444424578772297   0.222219311012773   0.124994582173542   1.0000000
N2   N   0.611058220497593   0.722204676615674   0.125050967704199   1.0000000
N2   N   0.944359519186201   0.722181228476109   0.125015707392535   1.0000000
N2   N   0.777726509408525   0.222181706783428   0.124970909751180   1.0000000
N2   N   0.111054489917205   0.888865260543634   0.625026297901798   1.0000000
N2   N   0.444388087805614   0.888860710569471   0.624990539042921   1.0000000
N2   N   0.277662394199361   0.388796346169247   0.624915920173323   1.0000000
N2   N   0.610988044269544   0.388864914319944   0.624184385657273   1.0000000
N2   N   0.777726509408525   0.888878135958426   0.625029090248821   1.0000000
N2   N   0.944381793979960   0.388850210093527   0.625017954267443   1.0000000
N2   N   0.111039507466631   0.388844755379084   0.125010832810369   1.0000000
N2   N   0.277720974538695   0.888871825296519   0.124986477402638   1.0000000
N2   N   0.611044319336282   0.888867376426064   0.124964260028823   1.0000000
N2   N   0.444345382720344   0.388839358026836   0.124336578173925   1.0000000
N2   N   0.944381793979960   0.888864917219762   0.124982045732557   1.0000000
N2   N   0.777695587588825   0.388842228735041   0.125120091083988   1.0000000
N2   N   0.277721820616669   0.555505709482198   0.625001753673483   1.0000000
N2   N   0.111039507466631   0.055528085420875   0.624989167189631   1.0000000
N2   N   0.610988044269544   0.555456463282927   0.624184385657273   1.0000000
N2   N   0.444398684715212   0.055545772759987   0.624978111122310   1.0000000
N2   N   0.944359519186201   0.555511624043428   0.624984292607467   1.0000000
N2   N   0.111054489917205   0.555522562706899   0.124973702098202   1.0000000
N2   N   0.777704542188009   0.055518937760673   0.625076424076883   1.0000000
N2   N   0.277721820616669   0.055549444467806   0.124998246326518   1.0000000
N2   N   0.444424578772297   0.555538601092859   0.124994582173542   1.0000000
N2   N   0.777688983611234   0.555511158472284   0.125264297698010   1.0000000
N2   N   0.611044319336282   0.055510276243547   0.124964260028823   1.0000000
N2   N   0.444424578772297   0.555538601092859   0.625005417826458   1.0000000
N2   N   0.944354833604470   0.055507179157053   0.124940791093993   1.0000000
N2   N   0.277720974538695   0.722182482575506   0.625013522597363   1.0000000
N2   N   0.110971186692878   0.222152260013103   0.625121290600294   1.0000000
N2   N   0.444424578772297   0.222219311012773   0.625005417826458   1.0000000
N2   N   0.611058220497593   0.722204676615674   0.624949032295801   1.0000000
N2   N   0.944359519186201   0.722181228476109   0.624984292607467   1.0000000
N2   N   0.777726509408525   0.222181706783428   0.625029090248821   1.0000000
N2   N   0.111041753625464   0.722187543479396   0.124958833539320   1.0000000
N2   N   0.444398684715212   0.722186245288560   0.125021888877689   1.0000000
N2   N   0.277662394199361   0.222199381363443   0.125084079826677   1.0000000
N2   N   0.777695587588825   0.722186692187113   0.125120091083988   1.0000000
N2   N   0.611058220497593   0.222186877215247   0.125050967704199   1.0000000
N2   N   0.944354833604470   0.222180987780753   0.124940791093993   1.0000000
N2   N   0.111039507466631   0.388844755379084   0.624989167189631   1.0000000
N2   N   0.277720974538695   0.888871825296519   0.625013522597363   1.0000000
N2   N   0.611044319336282   0.888867376426064   0.625035739971177   1.0000000
N2   N   0.444345382720344   0.388839358026836   0.625663421826076   1.0000000
N2   N   0.944381793979960   0.888864917219762   0.625017954267443   1.0000000
N2   N   0.111054489917205   0.888865260543634   0.124973702098202   1.0000000
N2   N   0.777695587588825   0.388842228735041   0.624879908916011   1.0000000
N2   N   0.444388087805614   0.888860710569471   0.125009460957079   1.0000000
N2   N   0.277662394199361   0.388796346169247   0.125084079826677   1.0000000
N2   N   0.277721820616669   0.555505709482198   0.124998246326518   1.0000000
N2   N   0.610988044269544   0.388864914319944   0.125815614342729   1.0000000
N2   N   0.777726509408525   0.888878135958426   0.124970909751180   1.0000000
N2   N   0.944381793979960   0.388850210093527   0.124982045732557   1.0000000
N2   N   0.111054489917205   0.555522562706899   0.625026297901798   1.0000000
N2   N   0.277721820616669   0.055549444467806   0.625001753673483   1.0000000
N2   N   0.777688983611234   0.555511158472284   0.624735702301990   1.0000000
N2   N   0.611044319336282   0.055510276243547   0.625035739971177   1.0000000
N2   N   0.944354833604470   0.055507179157053   0.625059208906006   1.0000000
N2   N   0.056069884372125   0.111410049552943   0.375000000000000   1.0000000
N2   N   0.555229086637087   0.609996788150864   0.375000000000000   1.0000000
N2   N   0.388403238339883   0.111042349772580   0.375000000000000   1.0000000
N2   N   0.888710965724171   0.611022149528756   0.375000000000000   1.0000000
N2   N   0.722261004628431   0.111237304592796   0.375000000000000   1.0000000
N2   N   0.055631075172031   0.777811350185430   0.875000000000000   1.0000000
N2   N   0.388973987083361   0.777813431993493   0.875000000000000   1.0000000
N2   N   0.222296636773713   0.277814985053524   0.875000000000000   1.0000000
N2   N   0.722308462364375   0.777823751181558   0.875000000000000   1.0000000
N2   N   0.555646488149136   0.277829587940166   0.875000000000000   1.0000000
N2   N   0.888974672276856   0.277823220326017   0.875000000000000   1.0000000
N2   N   0.222027916692395   0.777680625012866   0.375000000000000   1.0000000
N2   N   0.056069884372125   0.277993168152518   0.375000000000000   1.0000000
N2   N   0.390870150107832   0.279860149002134   0.375000000000000   1.0000000
N2   N   0.555452293348873   0.777340022190421   0.375000000000000   1.0000000
N2   N   0.888530149881531   0.777467693390827   0.375000000000000   1.0000000
N2   N   0.722011194199059   0.277968141427827   0.375000000000000   1.0000000
N2   N   0.055645557610566   0.944484274510317   0.875000000000000   1.0000000
N2   N   0.388973987083361   0.944493888423204   0.875000000000000   1.0000000
N2   N   0.222301590118152   0.444488710774241   0.875000000000000   1.0000000
N2   N   0.555647341228755   0.444490337281042   0.875000000000000   1.0000000
N2   N   0.722291414539719   0.944483723461501   0.875000000000000   1.0000000
N2   N   0.888969142533150   0.444483366365680   0.875000000000000   1.0000000
N2   N   0.055779292309813   0.444472713703251   0.375000000000000   1.0000000
N2   N   0.221977391611939   0.944054632511191   0.375000000000000   1.0000000
N2   N   0.555553241048885   0.944443287191107   0.375000000000000   1.0000000
N2   N   0.390870150107832   0.444343334439033   0.375000000000000   1.0000000
N2   N   0.888982067422917   0.944462268817843   0.375000000000000   1.0000000
N2   N   0.721282606652513   0.444682151511885   0.375000000000000   1.0000000
N2   N   0.222307739055112   0.611154465006000   0.875000000000000   1.0000000
N2   N   0.055637893752447   0.111143077959929   0.875000000000000   1.0000000
N2   N   0.555646488149136   0.611150233542306   0.875000000000000   1.0000000
N2   N   0.388981140330661   0.111162358514054   0.875000000000000   1.0000000
N2   N   0.888956594237418   0.611144963785381   0.875000000000000   1.0000000
N2   N   0.055368099353540   0.611060512930050   0.375000000000000   1.0000000
N2   N   0.722291414539719   0.111141024411554   0.875000000000000   1.0000000
N2   N   0.223237844016112   0.111600603266137   0.375000000000000   1.0000000
N2   N   0.388403238339883   0.610694221900646   0.375000000000000   1.0000000
N2   N   0.721282606652513   0.609933788473964   0.375000000000000   1.0000000
N2   N   0.555452293348873   0.111445604491788   0.375000000000000   1.0000000
N2   N   0.388981140330661   0.611152115149951   0.875000000000000   1.0000000
N2   N   0.889108778853750   0.111221056093546   0.375000000000000   1.0000000
N2   N   0.222295960310087   0.777814646821711   0.875000000000000   1.0000000
N2   N   0.055637893752447   0.277828149125854   0.875000000000000   1.0000000
N2   N   0.388972040429115   0.277821959669037   0.875000000000000   1.0000000
N2   N   0.555630430464964   0.777811773989825   0.875000000000000   1.0000000
N2   N   0.888969142533150   0.777819109500805   0.875000000000000   1.0000000
N2   N   0.722308462364375   0.277818044516152   0.875000000000000   1.0000000
N2   N   0.055368099353540   0.777640919756826   0.375000000000000   1.0000000
N2   N   0.388789377734247   0.777649679523239   0.375000000000000   1.0000000
N2   N   0.223145022911453   0.278239178122395   0.375000000000000   1.0000000
N2   N   0.722011194199059   0.777376386104566   0.375000000000000   1.0000000
N2   N   0.555229086637087   0.278565631819558   0.375000000000000   1.0000000
N2   N   0.888982067422917   0.277853131938411   0.375000000000000   1.0000000
N2   N   0.055645557610566   0.444494616433578   0.875000000000000   1.0000000
N2   N   0.222307739055112   0.944486607382447   0.875000000000000   1.0000000
N2   N   0.555619879456642   0.944476606394985   0.875000000000000   1.0000000
N2   N   0.388972040429115   0.444483414093414   0.875000000000000   1.0000000
N2   N   0.888974672276856   0.944484785284174   0.875000000000000   1.0000000
N2   N   0.055779292309813   0.944639911939890   0.375000000000000   1.0000000
N2   N   0.722303590768183   0.444480273314014   0.875000000000000   1.0000000
N2   N   0.388789377734247   0.944473031544343   0.375000000000000   1.0000000
N2   N   0.223237844016112   0.444970574083310   0.375000000000000   1.0000000
N2   N   0.221977391611939   0.611256092434085   0.375000000000000   1.0000000
N2   N   0.722261004628431   0.944357033368971   0.375000000000000   1.0000000
N2   N   0.888530149881531   0.444395789824038   0.375000000000000   1.0000000
N2   N   0.055631075172031   0.611153058319937   0.875000000000000   1.0000000
N2   N   0.222301590118152   0.111146212677247   0.875000000000000   1.0000000
N2   N   0.722303590768183   0.611156650787505   0.875000000000000   1.0000000
N2   N   0.555630430464964   0.111151989808473   0.875000000000000   1.0000000
N2   N   0.888960697360355   0.111147015346849   0.875000000000000   1.0000000
B2   B   0.112054375336182   0.056206752166864   0.375000000000000   1.0000000
B2   B   0.611657732619141   0.557442977217083   0.375000000000000   1.0000000
B2   B   0.443972003127233   0.055736832392393   0.375000000000000   1.0000000
B2   B   0.944485996668398   0.555633692626738   0.375000000000000   1.0000000
B2   B   0.778002929456157   0.055668131394746   0.375000000000000   1.0000000
B2   B   0.111201264341310   0.722267298837319   0.875000000000000   1.0000000
B2   B   0.444546171428466   0.722250342985871   0.875000000000000   1.0000000
B2   B   0.277836742686673   0.222290940835552   0.875000000000000   1.0000000
B2   B   0.777882698357240   0.722294599568593   0.875000000000000   1.0000000
B2   B   0.611163319763408   0.222285740055258   0.875000000000000   1.0000000
B2   B   0.944516539568286   0.222290808148685   0.875000000000000   1.0000000
B2   B   0.277636758079992   0.722162673659171   0.375000000000000   1.0000000
B2   B   0.112525147307544   0.222929240320436   0.375000000000000   1.0000000
B2   B   0.442872531938245   0.222382263770002   0.375000000000000   1.0000000
B2   B   0.610718642754297   0.721568350916338   0.375000000000000   1.0000000
B2   B   0.944485996668398   0.722185637374996   0.375000000000000   1.0000000
B2   B   0.777899082467623   0.222341586203865   0.375000000000000   1.0000000
B2   B   0.111262390367035   0.888963697710000   0.875000000000000   1.0000000
B2   B   0.444584154049002   0.888958743691166   0.875000000000000   1.0000000
B2   B   0.277836742686673   0.388879135184449   0.875000000000000   1.0000000
B2   B   0.611152609656301   0.388877980322698   0.875000000000000   1.0000000
B2   B   0.777923212002773   0.888974562319767   0.875000000000000   1.0000000
B2   B   0.944519803471035   0.388888099764201   0.875000000000000   1.0000000
B2   B   0.112054375336182   0.389180956502647   0.375000000000000   1.0000000
B2   B   0.277636758079992   0.888807417754149   0.375000000000000   1.0000000
B2   B   0.610960495009386   0.888627179554422   0.375000000000000   1.0000000
B2   B   0.944586553620612   0.889046297801084   0.375000000000000   1.0000000
B2   B   0.777594000800476   0.388772336379453   0.375000000000000   1.0000000
B2   B   0.277848376951871   0.555609803455544   0.875000000000000   1.0000000
B2   B   0.111230737149771   0.055611059646465   0.875000000000000   1.0000000
B2   B   0.611152609656301   0.555607962666931   0.875000000000000   1.0000000
B2   B   0.444546171428466   0.055629161775932   0.875000000000000   1.0000000
B2   B   0.944492435894655   0.555605265902793   0.875000000000000   1.0000000
B2   B   0.111173127038492   0.555624672582435   0.375000000000000   1.0000000
B2   B   0.777861173504418   0.055597253418877   0.875000000000000   1.0000000
B2   B   0.277678494648705   0.055185528522644   0.375000000000000   1.0000000
B2   B   0.442872531938245   0.553823601501579   0.375000000000000   1.0000000
B2   B   0.778320072765196   0.555826703049265   0.375000000000000   1.0000000
B2   B   0.610960495009386   0.055666648788294   0.375000000000000   1.0000000
B2   B   0.444575116486618   0.555595795565244   0.875000000000000   1.0000000
B2   B   0.944972660386100   0.055838905029243   0.375000000000000   1.0000000
B2   B   0.277841776686669   0.722213585271946   0.875000000000000   1.0000000
B2   B   0.111272160154059   0.222302746743694   0.875000000000000   1.0000000
B2   B   0.444575116486618   0.222312654254710   0.875000000000000   1.0000000
B2   B   0.611163319763408   0.722210913041478   0.875000000000000   1.0000000
B2   B   0.944492435894655   0.722220503325196   0.875000000000000   1.0000000
B2   B   0.777923212002773   0.222281983016334   0.875000000000000   1.0000000
B2   B   0.111082326425127   0.722207829879228   0.375000000000000   1.0000000
B2   B   0.443972003127233   0.721568504068176   0.375000000000000   1.0000000
B2   B   0.279791695674652   0.223220390286326   0.375000000000000   1.0000000
B2   B   0.777594000800476   0.722154997754351   0.375000000000000   1.0000000
B2   B   0.610718642754297   0.222483625171287   0.375000000000000   1.0000000
B2   B   0.944972660386100   0.222467088690194   0.375000000000000   1.0000000
B2   B   0.111230737149771   0.388953010836634   0.875000000000000   1.0000000
B2   B   0.277841776686669   0.888961524748052   0.875000000000000   1.0000000
B2   B   0.611147775838716   0.888935418512197   0.875000000000000   1.0000000
B2   B   0.444507475596337   0.388920404464833   0.875000000000000   1.0000000
B2   B   0.944519803471035   0.888965037040163   0.875000000000000   1.0000000
B2   B   0.111173127038492   0.888881787789385   0.375000000000000   1.0000000
B2   B   0.777882698357240   0.388921432121975   0.875000000000000   1.0000000
B2   B   0.444392862021591   0.888863097677460   0.375000000000000   1.0000000
B2   B   0.279791695674652   0.389904638721655   0.375000000000000   1.0000000
B2   B   0.277678494648705   0.555826299459396   0.375000000000000   1.0000000
B2   B   0.611657732619141   0.387548088735387   0.375000000000000   1.0000000
B2   B   0.777899082467623   0.888890829597086   0.375000000000000   1.0000000
B2   B   0.944586553620612   0.388873589152857   0.375000000000000   1.0000000
B2   B   0.111262390367035   0.555632025990363   0.875000000000000   1.0000000
B2   B   0.277848376951871   0.055571906829664   0.875000000000000   1.0000000
B2   B   0.777914961777930   0.555624147555633   0.875000000000000   1.0000000
B2   B   0.611147775838716   0.055545690659848   0.875000000000000   1.0000000
B2   B   0.944516539568286   0.055559064752936   0.875000000000000   1.0000000
B2   B   0.055527708549515   0.111096248355518   0.125042890193344   1.0000000
B2   B   0.555351409670078   0.611052299476633   0.125296266328558   1.0000000
B2   B   0.388851617088526   0.111116025680566   0.125214734398947   1.0000000
B2   B   0.888828474808426   0.611080904070885   0.125071297575825   1.0000000
B2   B   0.722189972051438   0.111052831995932   0.124999487070923   1.0000000
B2   B   0.055540876878106   0.777752013325413   0.624966455586209   1.0000000
B2   B   0.388858545999482   0.777707853232772   0.624898607399887   1.0000000
B2   B   0.222147158617370   0.277740245975353   0.624759636196200   1.0000000
B2   B   0.722162880482557   0.777743827090448   0.624967878303925   1.0000000
B2   B   0.555351409670078   0.277632443526783   0.624703733671442   1.0000000
B2   B   0.888813987491340   0.277713728507847   0.624980220168546   1.0000000
B2   B   0.222120132866273   0.777726733099804   0.125057956842349   1.0000000
B2   B   0.055527708549515   0.277764793527332   0.125042890193344   1.0000000
B2   B   0.388803312336420   0.277823835010051   0.125431728190478   1.0000000
B2   B   0.555416575512215   0.777708129085970   0.125064350991246   1.0000000
B2   B   0.888759155982909   0.777740102764865   0.125038347828174   1.0000000
B2   B   0.722162880482557   0.277752386725444   0.125032121696074   1.0000000
B2   B   0.055542378576084   0.944515767849752   0.624947937809958   1.0000000
B2   B   0.388858545999482   0.944484026100046   0.624898607399887   1.0000000
B2   B   0.222135296001359   0.444323374777009   0.624764935754880   1.0000000
B2   B   0.555145357734757   0.444239345534043   0.625107458264629   1.0000000
B2   B   0.722189972051438   0.944470473388842   0.625000512929077   1.0000000
B2   B   0.888759155982909   0.444352386551380   0.624961652171826   1.0000000
B2   B   0.055542378576084   0.444359944059662   0.125052062190042   1.0000000
B2   B   0.222175708926572   0.944471972927084   0.125081501601091   1.0000000
B2   B   0.555478477238148   0.944405905285738   0.125046726809998   1.0000000
B2   B   0.388803312336420   0.444312810659704   0.125431728190478   1.0000000
B2   B   0.888813987491340   0.944433592316828   0.125019779831454   1.0000000
B2   B   0.722164824763901   0.444363796761536   0.125291718799925   1.0000000
B2   B   0.222175708926572   0.611037069332825   0.624918498398909   1.0000000
B2   B   0.055527708549515   0.111096248355518   0.624957109806656   1.0000000
B2   B   0.555351409670078   0.611052299476633   0.624703733671442   1.0000000
B2   B   0.388851617088526   0.111116025680566   0.624785265601053   1.0000000
B2   B   0.888828474808426   0.611080904070885   0.624928702424175   1.0000000
B2   B   0.055540876878106   0.611122196886030   0.125033544413791   1.0000000
B2   B   0.722189972051438   0.111052831995932   0.625000512929077   1.0000000
B2   B   0.222135296001359   0.111145254557686   0.125235064245120   1.0000000
B2   B   0.388851617088526   0.611068924741303   0.125214734398947   1.0000000
B2   B   0.722164824763901   0.611134361335702   0.125291718799925   1.0000000
B2   B   0.555416575512215   0.111041779759582   0.125064350991246   1.0000000
B2   B   0.388851617088526   0.611068924741303   0.624785265601053   1.0000000
B2   B   0.888767555297565   0.111050444315454   0.125018223004446   1.0000000
B2   B   0.222120132866273   0.777726733099804   0.624942043157651   1.0000000
B2   B   0.055527708549515   0.277764793527332   0.624957109806656   1.0000000
B2   B   0.388803312336420   0.277823835010051   0.624568271809522   1.0000000
B2   B   0.555416575512215   0.777708129085970   0.624935649008754   1.0000000
B2   B   0.888759155982909   0.777740102764865   0.624961652171826   1.0000000
B2   B   0.722162880482557   0.277752386725444   0.624967878303925   1.0000000
B2   B   0.055540876878106   0.777752013325413   0.125033544413791   1.0000000
B2   B   0.388858545999482   0.777707853232772   0.125101392600112   1.0000000
B2   B   0.222147158617370   0.277740245975353   0.125240363803800   1.0000000
B2   B   0.722162880482557   0.777743827090448   0.125032121696074   1.0000000
B2   B   0.555351409670078   0.277632443526783   0.125296266328558   1.0000000
B2   B   0.888813987491340   0.277713728507847   0.125019779831454   1.0000000
B2   B   0.055542378576084   0.444359944059662   0.624947937809958   1.0000000
B2   B   0.222175708926572   0.944471972927084   0.624918498398909   1.0000000
B2   B   0.555478477238148   0.944405905285738   0.624953273190003   1.0000000
B2   B   0.388803312336420   0.444312810659704   0.624568271809522   1.0000000
B2   B   0.888813987491340   0.944433592316828   0.624980220168546   1.0000000
B2   B   0.055542378576084   0.944515767849752   0.125052062190042   1.0000000
B2   B   0.722164824763901   0.444363796761536   0.624708281200075   1.0000000
B2   B   0.388858545999482   0.944484026100046   0.125101392600112   1.0000000
B2   B   0.222135296001359   0.444323374777009   0.125235064245120   1.0000000
B2   B   0.222175708926572   0.611037069332825   0.125081501601091   1.0000000
B2   B   0.555145357734757   0.444239345534043   0.124892541735371   1.0000000
B2   B   0.722189972051438   0.944470473388842   0.124999487070923   1.0000000
B2   B   0.888759155982909   0.444352386551380   0.125038347828174   1.0000000
B2   B   0.055540876878106   0.611122196886030   0.624966455586209   1.0000000
B2   B   0.222135296001359   0.111145254557686   0.624764935754880   1.0000000
B2   B   0.722164824763901   0.611134361335702   0.624708281200075   1.0000000
B2   B   0.555416575512215   0.111041779759582   0.624935649008754   1.0000000
B2   B   0.888767555297565   0.111050444315454   0.624981776995554   1.0000000


