data_1
_audit_creation_method   'vasp2cif'
_cell_length_a    17.52789999999977
_cell_length_b    17.52789999999977
_cell_length_c    15.0
_cell_angle_alpha    90.0
_cell_angle_beta    90.0
_cell_angle_gamma    119.99999999999916

_symmetry_space_group_name_H-M    'P 1'
loop_
_atom_site_label
_atom_site_type_symbol
_atom_site_fract_x
_atom_site_fract_y
_atom_site_fract_z
_atom_site_occupancy
Sb2   Sb   0.500917109605271   0.499084292311705   0.110902751678235   1.0000000
B2   B   0.906360480464951   0.953903953226884   0.110981226951148   1.0000000
B2   B   0.904256821633534   0.095745199562498   0.110913166482076   1.0000000
B2   B   0.903619676426969   0.238347712860653   0.110914634743294   1.0000000
B2   B   0.903913678828731   0.381126046895639   0.110845443746334   1.0000000
B2   B   0.905961504781923   0.524200038139143   0.111007097250528   1.0000000
B2   B   0.908188191300705   0.667933142315886   0.111088629487206   1.0000000
B2   B   0.909191164600843   0.812435486865959   0.111070972231481   1.0000000
B2   B   0.048364173014001   0.951637848181989   0.111021118572065   1.0000000
B2   B   0.046098067969155   0.093641540731050   0.110981226951148   1.0000000
B2   B   0.045536258338364   0.236977722547332   0.110943615014092   1.0000000
B2   B   0.046201776481652   0.380269831943572   0.110967482155167   1.0000000
B2   B   0.048021511534151   0.523269221624792   0.110998516835317   1.0000000
B2   B   0.049544206143119   0.666244646731352   0.111098292129832   1.0000000
B2   B   0.049664472866207   0.809220697773365   0.111075682260246   1.0000000
B2   B   0.190781323422637   0.950337548329796   0.111075682260246   1.0000000
B2   B   0.187566534330040   0.090810856595157   0.111070972231481   1.0000000
B2   B   0.185663441166545   0.233233036693447   0.111050230712001   1.0000000
B2   B   0.187465843884591   0.378592165975382   0.111144778608315   1.0000000
B2   B   0.190247434795955   0.522341116014364   0.111177530473305   1.0000000
B2   B   0.192080910996588   0.665390132115296   0.111113503621812   1.0000000
B2   B   0.191862631823344   0.808139389372625   0.111081098674546   1.0000000
B2   B   0.333757374465621   0.950457815052916   0.111098292129832   1.0000000
B2   B   0.332068878881107   0.091813829895263   0.111088629487206   1.0000000
B2   B   0.325795092218794   0.228818589602768   0.111057042530843   1.0000000
B2   B   0.324390923397691   0.372926341299374   0.111072808068562   1.0000000
B2   B   0.332429549023279   0.520233622370907   0.111241861278588   1.0000000
B2   B   0.335371773499094   0.664630247697903   0.111210289080443   1.0000000
B2   B   0.334611889081724   0.807921110199423   0.111113503621812   1.0000000
B2   B   0.476732799572213   0.951980509661837   0.110998516835318   1.0000000
B2   B   0.475801983057842   0.094040516414043   0.111007097250528   1.0000000
B2   B   0.473978016597728   0.235119794182718   0.110996457809995   1.0000000
B2   B   0.461577595213171   0.365335192317109   0.110955560873465   1.0000000
B2   B   0.479768398826074   0.667572472173678   0.111241861278588   1.0000000
B2   B   0.477660905182621   0.809754586400063   0.111177530473305   1.0000000
B2   B   0.619732189252418   0.953800244714350   0.110967482155167   1.0000000
B2   B   0.618875974300358   0.096088342367258   0.110845443746334   1.0000000
B2   B   0.618098020768953   0.238944617145021   0.110911402610413   1.0000000
B2   B   0.617113427148406   0.382888594047587   0.110915370868793   1.0000000
B2   B   0.634666828878885   0.538424425983813   0.110955560873465   1.0000000
B2   B   0.627075679896649   0.675611097799321   0.111072808068562   1.0000000
B2   B   0.621409855220617   0.812536177311424   0.111144778608315   1.0000000
B2   B   0.763024298648660   0.954465762857671   0.110943615014092   1.0000000
B2   B   0.761654308335374   0.096382344769050   0.110914634743294   1.0000000
B2   B   0.761075670295255   0.238926350900748   0.110918358452846   1.0000000
B2   B   0.761057404051000   0.381904000427006   0.110911402610413   1.0000000
B2   B   0.764882227013318   0.526024004599263   0.110996457809995   1.0000000
B2   B   0.771183431593220   0.674206928978211   0.111057042530843   1.0000000
B2   B   0.766768984502544   0.814338580029457   0.111050230712001   1.0000000
N2   N   0.954490921727801   0.906448705557046   0.110998141996755   1.0000000
N2   N   0.951950950379513   0.048050451538506   0.110946679011264   1.0000000
N2   N   0.950864563987281   0.190425821558032   0.110868085743550   1.0000000
N2   N   0.951086284233276   0.333285771075694   0.110810100436656   1.0000000
N2   N   0.952753038998093   0.476202386803723   0.110880492523000   1.0000000
N2   N   0.954602266201052   0.619370951105288   0.111073683537513   1.0000000
N2   N   0.955259780660381   0.763017524987661   0.111065038789577   1.0000000
N2   N   0.096108418064091   0.903892983853871   0.111034880963602   1.0000000
N2   N   0.093552696360932   0.045510480190185   0.110998141996755   1.0000000
N2   N   0.091654455525643   0.187772590325798   0.110960273712515   1.0000000
N2   N   0.092568711522557   0.331828789863857   0.111014398499722   1.0000000
N2   N   0.094788865797712   0.475347364065527   0.111031559099469   1.0000000
N2   N   0.096658082809331   0.618397621821571   0.111060805835939   1.0000000
N2   N   0.096924982849669   0.761263845359631   0.111074865754485   1.0000000
N2   N   0.238737556558369   0.903076419068309   0.111074865754485   1.0000000
N2   N   0.236983876930323   0.044741621257611   0.111065038789577   1.0000000
N2   N   0.232135687422506   0.184085406058632   0.111057917881466   1.0000000
N2   N   0.230811246972048   0.327104567447847   0.111096665870676   1.0000000
N2   N   0.236205546345269   0.473926616016648   0.111225113498549   1.0000000
N2   N   0.239399244583972   0.617732459209589   0.111169281269324   1.0000000
N2   N   0.239396061960643   0.760605339957363   0.111084903128460   1.0000000
N2   N   0.381603780096423   0.903343319108687   0.111060805835939   1.0000000
N2   N   0.380630450812710   0.045399135716952   0.111073683537513   1.0000000
N2   N   0.378273116852341   0.186071796784051   0.111040337951127   1.0000000
N2   N   0.369210515172400   0.320993002237703   0.110986429626645   1.0000000
N2   N   0.370838057185146   0.465822823385645   0.111076583348912   1.0000000
N2   N   0.383004258064974   0.616997143853021   0.111231775068114   1.0000000
N2   N   0.382268942708432   0.760602157334066   0.111169281269324   1.0000000
N2   N   0.524654037851454   0.905212536120282   0.111031559099469   1.0000000
N2   N   0.523799015113278   0.047248362919934   0.110880492523000   1.0000000
N2   N   0.522801993167958   0.189175185258852   0.110961740179789   1.0000000
N2   N   0.520315356814295   0.330354604765051   0.110929878093093   1.0000000
N2   N   0.534178578531375   0.629163344732836   0.111076583348912   1.0000000
N2   N   0.526074785900330   0.763795855572738   0.111225113498549   1.0000000
N2   N   0.668172612053116   0.907432690395435   0.111014398499722   1.0000000
N2   N   0.666715630841287   0.048915117684724   0.110810100436656   1.0000000
N2   N   0.665940239080043   0.191465369794716   0.110822501824643   1.0000000
N2   N   0.665178213699704   0.334823188217264   0.110887203366252   1.0000000
N2   N   0.669646797151909   0.479686045102687   0.110929878093093   1.0000000
N2   N   0.679008399679292   0.630790886745623   0.110986429626645   1.0000000
N2   N   0.672896834469135   0.769190154945987   0.111096665870676   1.0000000
N2   N   0.812228811592196   0.908346946392347   0.110960273712508   1.0000000
N2   N   0.809575580359968   0.049136837930723   0.110868085743550   1.0000000
N2   N   0.808664863714944   0.191336538203054   0.110954921244626   1.0000000
N2   N   0.808536032123265   0.334061162836918   0.110822501824643   1.0000000
N2   N   0.810826216659135   0.477199408749024   0.110961740179789   1.0000000
N2   N   0.813929605133963   0.621728285065643   0.111040337951127   1.0000000
N2   N   0.815915995859357   0.767865714495535   0.111057917881466   1.0000000


