data_1
_audit_creation_method   'vasp2cif'
_cell_length_a    17.52789999999977
_cell_length_b    17.52789999999977
_cell_length_c    15.0
_cell_angle_alpha    90.0
_cell_angle_beta    90.0
_cell_angle_gamma    119.99999999999916

_symmetry_space_group_name_H-M    'P 1'
loop_
_atom_site_label
_atom_site_type_symbol
_atom_site_fract_x
_atom_site_fract_y
_atom_site_fract_z
_atom_site_occupancy
B2   B   0.904472723557130   0.951381548581820   0.111023355564732   1.0000000
B2   B   0.905581571119893   0.094637101737985   0.111060518853864   1.0000000
B2   B   0.905922299378606   0.237461668184265   0.111090325391841   1.0000000
B2   B   0.906124489805205   0.380568932612797   0.111006041939759   1.0000000
B2   B   0.905175890458675   0.523371198160128   0.110945903280142   1.0000000
B2   B   0.903051503356874   0.665665744373573   0.111044433878578   1.0000000
B2   B   0.902351235827888   0.807366141714093   0.111077077282178   1.0000000
B2   B   0.047472459239815   0.952453392080479   0.110954454199344   1.0000000
B2   B   0.048763207740793   0.095618896750428   0.110993505294042   1.0000000
B2   B   0.049059278696759   0.238367044226831   0.111076980447658   1.0000000
B2   B   0.048526871311852   0.381120270944365   0.111066111724283   1.0000000
B2   B   0.047298476933775   0.523977601549104   0.111050250776535   1.0000000
B2   B   0.046864253743804   0.666892733947988   0.111035834171635   1.0000000
B2   B   0.046761591777506   0.809496821271407   0.110972552406134   1.0000000
B2   B   0.190344696147551   0.953030779473624   0.110960348889284   1.0000000
B2   B   0.192609360497819   0.097514134356312   0.111021067902888   1.0000000
B2   B   0.192939485267458   0.240009551802702   0.111074504392874   1.0000000
B2   B   0.191618564510266   0.382038348176214   0.110962737779623   1.0000000
B2   B   0.189330199553381   0.524826017384422   0.110988846498580   1.0000000
B2   B   0.189414536311514   0.667572326338638   0.111119577217298   1.0000000
B2   B   0.189667433651698   0.810152492234045   0.111033433724917   1.0000000
B2   B   0.332979871281718   0.952941430410920   0.111040381949970   1.0000000
B2   B   0.334210028223204   0.096674817837650   0.111061097590653   1.0000000
B2   B   0.338898102706869   0.243465035503645   0.111140882145250   1.0000000
B2   B   0.336352136882607   0.384405201998340   0.111089512842341   1.0000000
B2   B   0.330667729183588   0.526500406353163   0.110770645461204   1.0000000
B2   B   0.331568242445257   0.668490310509078   0.110970607177885   1.0000000
B2   B   0.332356548522220   0.810513552334823   0.111111781845903   1.0000000
B2   B   0.475996937559790   0.952666429463442   0.111054858532187   1.0000000
B2   B   0.476546572841149   0.094627839567632   0.111003498107449   1.0000000
B2   B   0.477358066265544   0.237553280556607   0.111001230952185   1.0000000
B2   B   0.489659758127674   0.390939427077122   0.111247311987756   1.0000000
B2   B   0.470458872093111   0.529907066086769   0.111442271106796   1.0000000
B2   B   0.473618544749392   0.669614054961352   0.110792389364862   1.0000000
B2   B   0.475227834283569   0.810817882428216   0.111000146073480   1.0000000
B2   B   0.618991579063699   0.951647143309867   0.111060872958235   1.0000000
B2   B   0.619472875895452   0.093896679025398   0.111011831801051   1.0000000
B2   B   0.620526225127520   0.236560458901401   0.110843137585448   1.0000000
B2   B   0.621895743850373   0.377929380447017   0.110850689971047   1.0000000
B2   B   0.608540049410672   0.510175814526874   0.111267857040070   1.0000000
B2   B   0.615658058752620   0.663909877947060   0.111163676778937   1.0000000
B2   B   0.618087231757836   0.808649032194338   0.111000506042484   1.0000000
B2   B   0.761796434487794   0.951190915214928   0.111073480266446   1.0000000
B2   B   0.762699985485453   0.094261606703245   0.111076721622009   1.0000000
B2   B   0.763176962359875   0.236871825426754   0.110964271496561   1.0000000
B2   B   0.763321276492378   0.379402925648513   0.110808533217313   1.0000000
B2   B   0.762117694413645   0.522526052885772   0.110959337263159   1.0000000
B2   B   0.756320516875487   0.661072157186114   0.111182154606300   1.0000000
B2   B   0.760044684725836   0.807260841620658   0.111142389734874   1.0000000
N2   N   0.951430308014278   0.903286090951415   0.110997281162492   1.0000000
N2   N   0.953110455425933   0.047041410613744   0.110982880598578   1.0000000
N2   N   0.953634383860826   0.190139145598057   0.111070431757904   1.0000000
N2   N   0.953279223623832   0.332961930926399   0.111066338094270   1.0000000
N2   N   0.952320738685080   0.475778824785680   0.110971609839549   1.0000000
N2   N   0.951089141435397   0.618351434602184   0.110977360330697   1.0000000
N2   N   0.950770940830773   0.760707940026367   0.111028207846152   1.0000000
N2   N   0.094940410767942   0.904893359155969   0.110913718134705   1.0000000
N2   N   0.096707531932750   0.048508433681199   0.110950193854025   1.0000000
N2   N   0.097435332713029   0.191354591604428   0.111035186173291   1.0000000
N2   N   0.096511969824243   0.333750538710085   0.111034305430908   1.0000000
N2   N   0.094630933799410   0.476389193011927   0.111039543211569   1.0000000
N2   N   0.094128859122869   0.619289678936950   0.111072664923915   1.0000000
N2   N   0.094285676860624   0.762061357194252   0.110984893065541   1.0000000
N2   N   0.237782548826683   0.905512859204898   0.110975703882094   1.0000000
N2   N   0.239171354955002   0.049005181933864   0.110997700474094   1.0000000
N2   N   0.242626652764790   0.194254674815432   0.111085067503417   1.0000000
N2   N   0.241101867353641   0.335539382523385   0.111018430683556   1.0000000
N2   N   0.236825660261425   0.477321921858791   0.110833090481984   1.0000000
N2   N   0.236711094022885   0.620021496182343   0.111060824161538   1.0000000
N2   N   0.237176787728605   0.762720415489138   0.111104018307741   1.0000000
N2   N   0.380655360310339   0.905769249926461   0.111062193830664   1.0000000
N2   N   0.381546381273517   0.048681438658721   0.111019206539750   1.0000000
N2   N   0.383117407309115   0.192530969876490   0.111091757173454   1.0000000
N2   N   0.391128177022377   0.342361707995379   0.111197015249939   1.0000000
N2   N   0.378993646463080   0.479526057543819   0.110942957052759   1.0000000
N2   N   0.379014627705745   0.621118960157607   0.110725489156550   1.0000000
N2   N   0.380009200591219   0.763335642803185   0.111060244879128   1.0000000
N2   N   0.523693510754663   0.905480584020819   0.111046557816933   1.0000000
N2   N   0.524234757980760   0.047612470387223   0.110998668591376   1.0000000
N2   N   0.524993049620523   0.190227180303145   0.110926488610680   1.0000000
N2   N   0.527104152026354   0.333211526387536   0.110953774067197   1.0000000
N2   N   0.520603247256189   0.621359173170128   0.110981587429072   1.0000000
N2   N   0.522799227787040   0.763427958930286   0.110864013174239   1.0000000
N2   N   0.666411587456577   0.903735836872675   0.111034802902805   1.0000000
N2   N   0.667181632132267   0.046866681117680   0.111047970663080   1.0000000
N2   N   0.667713040923661   0.189327652284587   0.110917206813858   1.0000000
N2   N   0.668650320588326   0.331246908736642   0.110718205169543   1.0000000
N2   N   0.666429368462420   0.472770131853743   0.110944033756083   1.0000000
N2   N   0.657441066978625   0.608878262749912   0.111255599299960   1.0000000
N2   N   0.664552110976972   0.759148829027855   0.111097760896310   1.0000000
N2   N   0.808752052665510   0.902761865124607   0.111074238184150   1.0000000
N2   N   0.810070386412955   0.046603697988827   0.111052247675402   1.0000000
N2   N   0.810576501665540   0.189586662681783   0.111055308864073   1.0000000
N2   N   0.810674476347274   0.332327886070773   0.110907299409554   1.0000000
N2   N   0.809545273747179   0.474942642036735   0.110856004446259   1.0000000
N2   N   0.807189135798358   0.616780876728938   0.111067239831612   1.0000000
N2   N   0.805623101294739   0.757388056280944   0.111156895134496   1.0000000


