data_1
_audit_creation_method   'vasp2cif'
_cell_length_a    14.93631414619966
_cell_length_b    14.936314146199727
_cell_length_c    13.341276283792837
_cell_angle_alpha    90.0
_cell_angle_beta    90.0
_cell_angle_gamma    119.99999999999984

_symmetry_space_group_name_H-M    'P 1'
loop_
_atom_site_label
_atom_site_type_symbol
_atom_site_fract_x
_atom_site_fract_y
_atom_site_fract_z
_atom_site_occupancy
Sn2   Sn   0.555555555555557   0.444444444444443   0.375000000000000   1.0000000
N2   N   0.111105563325009   0.055542465696319   0.125269454621673   1.0000000
N2   N   0.611110796478364   0.555554926289495   0.124399464335283   1.0000000
N2   N   0.444432297862331   0.055542606802072   0.124977409592164   1.0000000
N2   N   0.944457393197948   0.555567702137452   0.124977409592164   1.0000000
N2   N   0.777774636758646   0.055553985046009   0.125589110986127   1.0000000
N2   N   0.111119155177805   0.722226244255568   0.624760873378689   1.0000000
N2   N   0.444432297862331   0.722223024393838   0.625022590407702   1.0000000
N2   N   0.277763287975983   0.222201014311599   0.625488492891582   1.0000000
N2   N   0.777798985688369   0.722236712023887   0.625488492891582   1.0000000
N2   N   0.611104393002371   0.222201014311599   0.625488492891582   1.0000000
N2   N   0.944446014953846   0.222225363241294   0.624410889013739   1.0000000
N2   N   0.277773755744390   0.722226244255568   0.125239126621213   1.0000000
N2   N   0.111111385917722   0.222222359625447   0.125210321568195   1.0000000
N2   N   0.444445047843523   0.222223429020389   0.124456941312050   1.0000000
N2   N   0.611104393002371   0.722236712023887   0.124511507108534   1.0000000
N2   N   0.944457393197948   0.722223024393838   0.124977409592164   1.0000000
N2   N   0.777777640374638   0.222222359625447   0.125210321568195   1.0000000
N2   N   0.111117271008649   0.888882728991205   0.624723338889197   1.0000000
N2   N   0.444432124649361   0.888882728991205   0.624723338889197   1.0000000
N2   N   0.277763287975983   0.388895606997878   0.625488492891582   1.0000000
N2   N   0.611110796478364   0.388889203521917   0.625600535664599   1.0000000
N2   N   0.777777640374638   0.888888614082515   0.624789678432160   1.0000000
N2   N   0.944457534303563   0.388896430961997   0.624730545378471   1.0000000
N2   N   0.111105563325009   0.388896430961997   0.125269454621673   1.0000000
N2   N   0.277773755744390   0.888880844822108   0.125239126621213   1.0000000
N2   N   0.611103569038287   0.888894436674801   0.125269454621673   1.0000000
N2   N   0.444445073710635   0.388889203521917   0.124399464335286   1.0000000
N2   N   0.944457534303563   0.888894436674801   0.125269454621673   1.0000000
N2   N   0.777798985688369   0.388895606997878   0.124511507108534   1.0000000
N2   N   0.277776975606234   0.555567702137452   0.625022590407702   1.0000000
N2   N   0.111105563325009   0.055542465696320   0.624730545378471   1.0000000
N2   N   0.611110796478364   0.555554926289495   0.625600535664599   1.0000000
N2   N   0.444432297862331   0.055542606802072   0.625022590407702   1.0000000
N2   N   0.944457393197948   0.555567702137452   0.625022590407702   1.0000000
N2   N   0.111117271008648   0.555567875350764   0.125276661110922   1.0000000
N2   N   0.777774636758646   0.055553985046009   0.624410889013739   1.0000000
N2   N   0.277776975606234   0.055542606802072   0.124977409592164   1.0000000
N2   N   0.444445047843523   0.555554952156520   0.124456941312050   1.0000000
N2   N   0.777776570979618   0.555554952156520   0.124456941312053   1.0000000
N2   N   0.611103569038287   0.055542465696319   0.125269454621673   1.0000000
N2   N   0.444445047843523   0.555554952156520   0.625543058687846   1.0000000
N2   N   0.944446014953846   0.055553985046009   0.125589110986127   1.0000000
N2   N   0.277773755744390   0.722226244255568   0.624760873378689   1.0000000
N2   N   0.111111385917722   0.222222359625447   0.624789678432160   1.0000000
N2   N   0.444445047843523   0.222223429020389   0.625543058687846   1.0000000
N2   N   0.611104393002371   0.722236712023887   0.625488492891582   1.0000000
N2   N   0.944457393197948   0.722223024393838   0.625022590407702   1.0000000
N2   N   0.777777640374638   0.222222359625447   0.624789678432160   1.0000000
N2   N   0.111119155177806   0.722226244255568   0.125239126621213   1.0000000
N2   N   0.444432297862331   0.722223024393838   0.124977409592164   1.0000000
N2   N   0.277763287975983   0.222201014311599   0.124511507108534   1.0000000
N2   N   0.777798985688369   0.722236712023887   0.124511507108534   1.0000000
N2   N   0.611104393002371   0.222201014311599   0.124511507108534   1.0000000
N2   N   0.944446014953846   0.222225363241294   0.125589110986127   1.0000000
N2   N   0.111105563325009   0.388896430961997   0.624730545378471   1.0000000
N2   N   0.277773755744390   0.888880844822108   0.624760873378689   1.0000000
N2   N   0.611103569038287   0.888894436674801   0.624730545378471   1.0000000
N2   N   0.444445073710636   0.388889203521917   0.625600535664599   1.0000000
N2   N   0.944457534303563   0.888894436674801   0.624730545378471   1.0000000
N2   N   0.111117271008648   0.888882728991205   0.125276661110922   1.0000000
N2   N   0.777798985688369   0.388895606997878   0.625488492891582   1.0000000
N2   N   0.444432124649361   0.888882728991205   0.125276661110920   1.0000000
N2   N   0.277763287975983   0.388895606997878   0.124511507108534   1.0000000
N2   N   0.277776975606234   0.555567702137452   0.124977409592164   1.0000000
N2   N   0.611110796478364   0.388889203521917   0.124399464335285   1.0000000
N2   N   0.777777640374638   0.888888614082515   0.125210321568195   1.0000000
N2   N   0.944457534303563   0.388896430961997   0.125269454621673   1.0000000
N2   N   0.111117271008648   0.555567875350764   0.624723338889197   1.0000000
N2   N   0.277776975606234   0.055542606802072   0.625022590407702   1.0000000
N2   N   0.777776570979618   0.555554952156520   0.625543058687846   1.0000000
N2   N   0.611103569038287   0.055542465696320   0.624730545378471   1.0000000
N2   N   0.944446014953846   0.055553985046009   0.624410889013739   1.0000000
N2   N   0.053917267075803   0.110047150919357   0.375000000000000   1.0000000
N2   N   0.556487409896471   0.624548069578739   0.375000000000000   1.0000000
N2   N   0.387410696417801   0.108154726169089   0.375000000000000   1.0000000
N2   N   0.891845273831054   0.612589303581880   0.375000000000000   1.0000000
N2   N   0.722796550510130   0.110047150919357   0.375000000000000   1.0000000
N2   N   0.055549655381542   0.777778538314148   0.875000000000000   1.0000000
N2   N   0.388895549599266   0.777778538314148   0.875000000000000   1.0000000
N2   N   0.222214806852734   0.277774070092932   0.875000000000000   1.0000000
N2   N   0.722225929907118   0.777785193147472   0.875000000000000   1.0000000
N2   N   0.555559328138770   0.277778710273978   0.875000000000000   1.0000000
N2   N   0.888891012132796   0.277776184895521   0.875000000000000   1.0000000
N2   N   0.222222222222221   0.777777777777779   0.375000000000000   1.0000000
N2   N   0.053917267075803   0.277203449489723   0.375000000000000   1.0000000
N2   N   0.375451930421165   0.265272673651070   0.375000000000000   1.0000000
N2   N   0.555105459744729   0.783195246632952   0.375000000000000   1.0000000
N2   N   0.894756453554782   0.783195246632952   0.375000000000000   1.0000000
N2   N   0.724845888847814   0.275154111152008   0.375000000000000   1.0000000
N2   N   0.055553463313202   0.944446536686796   0.875000000000000   1.0000000
N2   N   0.388895549599266   0.944450344618753   0.875000000000000   1.0000000
N2   N   0.222216241000689   0.444439246719196   0.875000000000000   1.0000000
N2   N   0.555555555555557   0.444444444444443   0.875000000000000   1.0000000
N2   N   0.722223815104359   0.944448160570632   0.875000000000000   1.0000000
N2   N   0.888889672385311   0.444439246719196   0.875000000000000   1.0000000
N2   N   0.055824732555036   0.444982798443510   0.375000000000000   1.0000000
N2   N   0.221766107442418   0.943168751454487   0.375000000000000   1.0000000
N2   N   0.555017201556620   0.944175267445240   0.375000000000000   1.0000000
N2   N   0.375451930421164   0.443512590103369   0.375000000000000   1.0000000
N2   N   0.889952849080584   0.946082732924318   0.375000000000000   1.0000000
N2   N   0.734727326348950   0.443512590103368   0.375000000000000   1.0000000
N2   N   0.222221461685830   0.611104450400584   0.875000000000000   1.0000000
N2   N   0.055551839429372   0.111108987867092   0.875000000000000   1.0000000
N2   N   0.555559328138770   0.611113951197958   0.875000000000000   1.0000000
N2   N   0.388892374908867   0.111118083150811   0.875000000000000   1.0000000
N2   N   0.888881916848922   0.611107625091217   0.875000000000000   1.0000000
N2   N   0.056831248545422   0.611930689321020   0.375000000000000   1.0000000
N2   N   0.722223815104359   0.111108987867092   0.875000000000000   1.0000000
N2   N   0.216804753367114   0.105243546445279   0.375000000000000   1.0000000
N2   N   0.387410696417802   0.612589303581880   0.375000000000000   1.0000000
N2   N   0.734727326348948   0.624548069578740   0.375000000000000   1.0000000
N2   N   0.555105459744728   0.105243546445279   0.375000000000000   1.0000000
N2   N   0.388892374908864   0.611107625091217   0.875000000000000   1.0000000
N2   N   0.888888888888886   0.111111111111114   0.375000000000000   1.0000000
N2   N   0.222222222222221   0.777777777777779   0.875000000000000   1.0000000
N2   N   0.055551839429372   0.277776184895521   0.875000000000000   1.0000000
N2   N   0.388886048802119   0.277778710273978   0.875000000000000   1.0000000
N2   N   0.555560753280804   0.777783758999524   0.875000000000000   1.0000000
N2   N   0.888889672385311   0.777783758999524   0.875000000000000   1.0000000
N2   N   0.722225929907118   0.277774070092932   0.875000000000000   1.0000000
N2   N   0.056831248545422   0.778233892557700   0.375000000000000   1.0000000
N2   N   0.388069310678820   0.778233892557700   0.375000000000000   1.0000000
N2   N   0.216974888970744   0.275154111152008   0.375000000000000   1.0000000
N2   N   0.724845888847921   0.783025111029319   0.375000000000000   1.0000000
N2   N   0.556487409896472   0.265272673651071   0.375000000000000   1.0000000
N2   N   0.889952849080584   0.277203449489723   0.375000000000000   1.0000000
N2   N   0.055553463313202   0.444440259959602   0.875000000000000   1.0000000
N2   N   0.222221461685830   0.944450344618753   0.875000000000000   1.0000000
N2   N   0.555559740040492   0.944446536686796   0.875000000000000   1.0000000
N2   N   0.388886048802119   0.444440671861525   0.875000000000000   1.0000000
N2   N   0.888891012132796   0.944448160570632   0.875000000000000   1.0000000
N2   N   0.055824732555029   0.944175267445240   0.375000000000000   1.0000000
N2   N   0.722221289725897   0.444440671861525   0.875000000000000   1.0000000
N2   N   0.388069310678820   0.943168751454487   0.375000000000000   1.0000000
N2   N   0.216804753367113   0.444894540255126   0.375000000000000   1.0000000
N2   N   0.221766107442419   0.611930689321020   0.375000000000000   1.0000000
N2   N   0.722796550510130   0.946082732924318   0.375000000000000   1.0000000
N2   N   0.894756453554782   0.444894540255126   0.375000000000000   1.0000000
N2   N   0.055549655381545   0.611104450400584   0.875000000000000   1.0000000
N2   N   0.222216241000689   0.111110327614659   0.875000000000000   1.0000000
N2   N   0.722221289725897   0.611113951197958   0.875000000000000   1.0000000
N2   N   0.555560753280804   0.111110327614659   0.875000000000000   1.0000000
N2   N   0.888888888888886   0.111111111111114   0.875000000000000   1.0000000
B2   B   0.107799525169418   0.053099991082430   0.375000000000000   1.0000000
B2   B   0.629438117746462   0.592209568826398   0.375000000000000   1.0000000
B2   B   0.443959312452775   0.052981688319011   0.375000000000000   1.0000000
B2   B   0.947018311681022   0.556040687547371   0.375000000000000   1.0000000
B2   B   0.778606819268586   0.055970076300982   0.375000000000000   1.0000000
B2   B   0.111118328597779   0.722225830965465   0.875000000000000   1.0000000
B2   B   0.444446665105590   0.722253335413470   0.875000000000000   1.0000000
B2   B   0.277705297950688   0.222176828181288   0.875000000000000   1.0000000
B2   B   0.777823171818493   0.722294702049258   0.875000000000000   1.0000000
B2   B   0.611138196897061   0.222176828181288   0.875000000000000   1.0000000
B2   B   0.944436832082528   0.222206997498951   0.875000000000000   1.0000000
B2   B   0.277387370692073   0.722612629308051   0.375000000000000   1.0000000
B2   B   0.107243855178475   0.220288594255911   0.375000000000000   1.0000000
B2   B   0.442032411079042   0.217398155491545   0.375000000000000   1.0000000
B2   B   0.613213432984746   0.733362022041733   0.375000000000000   1.0000000
B2   B   0.947018311681022   0.724310957467061   0.375000000000000   1.0000000
B2   B   0.779711405744198   0.220288594255911   0.375000000000000   1.0000000
B2   B   0.111106068326312   0.888893931673707   0.875000000000000   1.0000000
B2   B   0.444454530014064   0.888893931673707   0.875000000000000   1.0000000
B2   B   0.277705297950688   0.388861803102641   0.875000000000000   1.0000000
B2   B   0.611146198210010   0.388853801789644   0.875000000000000   1.0000000
B2   B   0.777804146514079   0.888941626361651   0.875000000000000   1.0000000
B2   B   0.944457133321681   0.388866529956642   0.875000000000000   1.0000000
B2   B   0.107799525169463   0.388032867420362   0.375000000000000   1.0000000
B2   B   0.277387370692073   0.888108074717474   0.375000000000000   1.0000000
B2   B   0.611967132579593   0.892200474830418   0.375000000000000   1.0000000
B2   B   0.407790431173693   0.370561882253467   0.375000000000000   1.0000000
B2   B   0.946900008917653   0.892200474830417   0.375000000000000   1.0000000
B2   B   0.786815255723249   0.386786567015226   0.375000000000000   1.0000000
B2   B   0.277746664586722   0.555553334894470   0.875000000000000   1.0000000
B2   B   0.111076063301785   0.055542866678387   0.875000000000000   1.0000000
B2   B   0.611146198210010   0.555625729754041   0.875000000000000   1.0000000
B2   B   0.444446665105590   0.055526663025534   0.875000000000000   1.0000000
B2   B   0.944473336974609   0.555553334894470   0.875000000000000   1.0000000
B2   B   0.111268973984008   0.555871281301164   0.375000000000000   1.0000000
B2   B   0.777793002501176   0.055563167917193   0.875000000000000   1.0000000
B2   B   0.275689042532908   0.052981688319011   0.375000000000000   1.0000000
B2   B   0.442032411079042   0.557967588920730   0.375000000000000   1.0000000
B2   B   0.782601844508581   0.557967588920731   0.375000000000000   1.0000000
B2   B   0.611967132579593   0.053099991082429   0.375000000000000   1.0000000
B2   B   0.444419205776872   0.555580794222863   0.875000000000000   1.0000000
B2   B   0.944029923698936   0.055970076300982   0.375000000000000   1.0000000
B2   B   0.277774169034376   0.722225830965465   0.875000000000000   1.0000000
B2   B   0.111058373638436   0.222195853485895   0.875000000000000   1.0000000
B2   B   0.444419205776874   0.222171744887293   0.875000000000000   1.0000000
B2   B   0.611138196897061   0.722294702049258   0.875000000000000   1.0000000
B2   B   0.944473336974609   0.722253335413470   0.875000000000000   1.0000000
B2   B   0.777804146514079   0.222195853485895   0.875000000000000   1.0000000
B2   B   0.111891925282589   0.722612629308051   0.375000000000000   1.0000000
B2   B   0.443959312452776   0.724310957467061   0.375000000000000   1.0000000
B2   B   0.266637977958320   0.213184744276574   0.375000000000000   1.0000000
B2   B   0.786815255723249   0.733362022041733   0.375000000000000   1.0000000
B2   B   0.613213432984748   0.213184744276574   0.375000000000000   1.0000000
B2   B   0.944029923698936   0.221393180731440   0.375000000000000   1.0000000
B2   B   0.111076063301786   0.388866529956642   0.875000000000000   1.0000000
B2   B   0.277774169034376   0.888881671402081   0.875000000000000   1.0000000
B2   B   0.611133470043272   0.888923936698159   0.875000000000000   1.0000000
B2   B   0.444374270245971   0.388853801789644   0.875000000000000   1.0000000
B2   B   0.944457133321681   0.888923936698159   0.875000000000000   1.0000000
B2   B   0.111268973984008   0.888731026015883   0.375000000000000   1.0000000
B2   B   0.777823171818493   0.388861803102641   0.875000000000000   1.0000000
B2   B   0.444128718698677   0.888731026015883   0.375000000000000   1.0000000
B2   B   0.266637977958318   0.386786567015226   0.375000000000000   1.0000000
B2   B   0.275689042532908   0.556040687547372   0.375000000000000   1.0000000
B2   B   0.629438117746464   0.370561882253466   0.375000000000000   1.0000000
B2   B   0.779711405744198   0.892756144821430   0.375000000000000   1.0000000
B2   B   0.946900008917647   0.388032867420362   0.375000000000000   1.0000000
B2   B   0.111106068326312   0.555545469985811   0.875000000000000   1.0000000
B2   B   0.277746664586722   0.055526663025534   0.875000000000000   1.0000000
B2   B   0.777828255112746   0.555580794222863   0.875000000000000   1.0000000
B2   B   0.611133470043272   0.055542866678387   0.875000000000000   1.0000000
B2   B   0.944436832082528   0.055563167917193   0.875000000000000   1.0000000
B2   B   0.055506062451411   0.111075337238784   0.125221641920930   1.0000000
B2   B   0.555493729159360   0.611351651943446   0.123850261852285   1.0000000
B2   B   0.388779116122428   0.110891565578318   0.124482200061166   1.0000000
B2   B   0.889108434421803   0.611220883877541   0.124482200061166   1.0000000
B2   B   0.722235941454215   0.111075337238784   0.125221641920930   1.0000000
B2   B   0.055637033331275   0.777812227103089   0.625014224661942   1.0000000
B2   B   0.388841860438626   0.777812227103089   0.625014224661942   1.0000000
B2   B   0.222076575582592   0.277704954458071   0.625551284468446   1.0000000
B2   B   0.722295045541909   0.777923424417194   0.625551284468446   1.0000000
B2   B   0.555493729159360   0.277475410549256   0.626149738147516   1.0000000
B2   B   0.888924662761076   0.277764058545969   0.624778358079184   1.0000000
B2   B   0.222222222222221   0.777777777777779   0.125056272361117   1.0000000
B2   B   0.055506062451411   0.277764058545969   0.125221641920930   1.0000000
B2   B   0.388648348056424   0.277475410549256   0.123850261852285   1.0000000
B2   B   0.555527932916982   0.777893344751617   0.124665626799464   1.0000000
B2   B   0.889032078501544   0.777893344751617   0.124665626799464   1.0000000
B2   B   0.722295045541909   0.277704954458071   0.124448715531819   1.0000000
B2   B   0.055565999502513   0.944434000497339   0.624880867912255   1.0000000
B2   B   0.388841860438626   0.944362966668997   0.625014224661942   1.0000000
B2   B   0.222106655248023   0.444472067082990   0.625334373200340   1.0000000
B2   B   0.555555555555557   0.444444444444443   0.627365951838880   1.0000000
B2   B   0.722235941454215   0.944493937548511   0.624778358079184   1.0000000
B2   B   0.889032078501544   0.444472067082990   0.625334373200340   1.0000000
B2   B   0.055565999502513   0.444465332338316   0.125119132087753   1.0000000
B2   B   0.222187772896633   0.944362966668997   0.124985775338119   1.0000000
B2   B   0.555534667661924   0.944434000497339   0.125119132087753   1.0000000
B2   B   0.388648348056424   0.444506270840599   0.123850261852285   1.0000000
B2   B   0.888924662761076   0.944493937548511   0.125221641920930   1.0000000
B2   B   0.722524589450793   0.444506270840599   0.123850261852285   1.0000000
B2   B   0.222187772896633   0.611158139561316   0.625014224661942   1.0000000
B2   B   0.055506062451411   0.111075337238784   0.624778358079184   1.0000000
B2   B   0.555493729159360   0.611351651943446   0.626149738147516   1.0000000
B2   B   0.388779116122428   0.110891565578318   0.625517799938588   1.0000000
B2   B   0.889108434421803   0.611220883877541   0.625517799938588   1.0000000
B2   B   0.055637033331275   0.611158139561316   0.124985775338119   1.0000000
B2   B   0.722235941454215   0.111075337238784   0.624778358079184   1.0000000
B2   B   0.222106655248023   0.110967921498413   0.124665626799464   1.0000000
B2   B   0.388779116122428   0.611220883877541   0.124482200061167   1.0000000
B2   B   0.722524589450793   0.611351651943446   0.123850261852285   1.0000000
B2   B   0.555527932916982   0.110967921498413   0.124665626799464   1.0000000
B2   B   0.388779116122428   0.611220883877541   0.625517799938588   1.0000000
B2   B   0.888888888888886   0.111111111111114   0.125479642394061   1.0000000
B2   B   0.222222222222221   0.777777777777779   0.624943727638971   1.0000000
B2   B   0.055506062451411   0.277764058545969   0.624778358079184   1.0000000
B2   B   0.388648348056424   0.277475410549256   0.626149738147516   1.0000000
B2   B   0.555527932916982   0.777893344751617   0.625334373200340   1.0000000
B2   B   0.889032078501544   0.777893344751617   0.625334373200340   1.0000000
B2   B   0.722295045541909   0.277704954458071   0.625551284468446   1.0000000
B2   B   0.055637033331275   0.777812227103089   0.124985775338119   1.0000000
B2   B   0.388841860438626   0.777812227103089   0.124985775338119   1.0000000
B2   B   0.222076575582592   0.277704954458071   0.124448715531819   1.0000000
B2   B   0.722295045541909   0.777923424417194   0.124448715531819   1.0000000
B2   B   0.555493729159360   0.277475410549256   0.123850261852285   1.0000000
B2   B   0.888924662761076   0.277764058545969   0.125221641920930   1.0000000
B2   B   0.055565999502513   0.444465332338316   0.624880867912255   1.0000000
B2   B   0.222187772896633   0.944362966668997   0.625014224661942   1.0000000
B2   B   0.555534667661924   0.944434000497339   0.624880867912255   1.0000000
B2   B   0.388648348056424   0.444506270840599   0.626149738147516   1.0000000
B2   B   0.888924662761076   0.944493937548511   0.624778358079184   1.0000000
B2   B   0.055565999502513   0.944434000497339   0.125119132087753   1.0000000
B2   B   0.722524589450793   0.444506270840599   0.626149738147516   1.0000000
B2   B   0.388841860438626   0.944362966668997   0.124985775338119   1.0000000
B2   B   0.222106655248023   0.444472067082990   0.124665626799464   1.0000000
B2   B   0.222187772896633   0.611158139561316   0.124985775338119   1.0000000
B2   B   0.555555555555557   0.444444444444443   0.122634048161348   1.0000000
B2   B   0.722235941454215   0.944493937548511   0.125221641920930   1.0000000
B2   B   0.889032078501544   0.444472067082990   0.124665626799464   1.0000000
B2   B   0.055637033331275   0.611158139561316   0.625014224661942   1.0000000
B2   B   0.222106655248023   0.110967921498412   0.625334373200340   1.0000000
B2   B   0.722524589450793   0.611351651943446   0.626149738147516   1.0000000
B2   B   0.555527932916982   0.110967921498413   0.625334373200340   1.0000000
B2   B   0.888888888888886   0.111111111111114   0.624520357605739   1.0000000


