data_1
_audit_creation_method   'vasp2cif'
_cell_length_a    17.52789999999977
_cell_length_b    17.52789999999977
_cell_length_c    15.0
_cell_angle_alpha    90.0
_cell_angle_beta    90.0
_cell_angle_gamma    119.99999999999916

_symmetry_space_group_name_H-M    'P 1'
loop_
_atom_site_label
_atom_site_type_symbol
_atom_site_fract_x
_atom_site_fract_y
_atom_site_fract_z
_atom_site_occupancy
B2   B   0.905090662286758   0.952572325325602   0.105597407091021   1.0000000
B2   B   0.904780968541183   0.095220930674525   0.104284686523949   1.0000000
B2   B   0.904675991850306   0.238039985622915   0.103987611153689   1.0000000
B2   B   0.904758706176435   0.380953640691889   0.104380645059608   1.0000000
B2   B   0.905072747652095   0.523909852097965   0.105696178651820   1.0000000
B2   B   0.905229843779231   0.666882249260138   0.107609938255170   1.0000000
B2   B   0.905198049393541   0.809728971378623   0.107590518731443   1.0000000
B2   B   0.047685450210831   0.952315077195323   0.105068272349072   1.0000000
B2   B   0.047429920991190   0.094910867984356   0.105599838066108   1.0000000
B2   B   0.047267781888781   0.237779747723218   0.106545069895070   1.0000000
B2   B   0.047257363639713   0.380885707084768   0.106605092840522   1.0000000
B2   B   0.047401272330269   0.523931167934562   0.105753158915275   1.0000000
B2   B   0.047689842071449   0.666809089931148   0.105093498841826   1.0000000
B2   B   0.047763616106431   0.809607429106233   0.105098957368053   1.0000000
B2   B   0.190391997158860   0.952236217836518   0.105100106038218   1.0000000
B2   B   0.190271825524947   0.094802748644710   0.107591929140129   1.0000000
B2   B   0.189509697925661   0.236944728975992   0.111066623938833   1.0000000
B2   B   0.189377688450171   0.380373580348169   0.113460046923274   1.0000000
B2   B   0.189483452140077   0.524002402237609   0.111262617689086   1.0000000
B2   B   0.190236524250802   0.666905563990326   0.107723442771705   1.0000000
B2   B   0.190397297426737   0.809604864719010   0.105190789204896   1.0000000
B2   B   0.333192171770499   0.952311265792606   0.105097498979086   1.0000000
B2   B   0.333117620150429   0.094770940559619   0.107612280459616   1.0000000
B2   B   0.332773898951613   0.236922420753548   0.115558708445296   1.0000000
B2   B   0.330212478755621   0.377271012335830   0.125592350757556   1.0000000
B2   B   0.330204392475965   0.524342555062347   0.125576095039765   1.0000000
B2   B   0.332722787221721   0.667279088265018   0.115661078076852   1.0000000
B2   B   0.333097247747544   0.809765875011074   0.107725948758064   1.0000000
B2   B   0.476070851729107   0.952601553900078   0.105757507078925   1.0000000
B2   B   0.476092145111281   0.094929838763970   0.105701686080687   1.0000000
B2   B   0.476032742407064   0.236953973910959   0.111320920212837   1.0000000
B2   B   0.475655355633906   0.377317548424995   0.125706999564887   1.0000000
B2   B   0.475659453842369   0.669798546914621   0.125576700214136   1.0000000
B2   B   0.476000194243969   0.810518687597241   0.111264912119048   1.0000000
B2   B   0.619116743592052   0.952744697221217   0.106605481266915   1.0000000
B2   B   0.619049131742094   0.095243856222075   0.104386360996857   1.0000000
B2   B   0.619128422265653   0.237800848409656   0.106615079034491   1.0000000
B2   B   0.619604677078369   0.380398421252158   0.113799982515962   1.0000000
B2   B   0.622684069127028   0.524345545728725   0.125704439331816   1.0000000
B2   B   0.622730142859745   0.669788889339546   0.125587964143376   1.0000000
B2   B   0.619629399347047   0.810624599496497   0.113458194430473   1.0000000
B2   B   0.762221811029395   0.952733132317182   0.106545047507091   1.0000000
B2   B   0.761961859377014   0.095326209885809   0.103989767657038   1.0000000
B2   B   0.761951497181733   0.238050382208241   0.104075948074447   1.0000000
B2   B   0.762201917740747   0.380874395037822   0.106612627145105   1.0000000
B2   B   0.763047336773500   0.523969007319596   0.111319263044674   1.0000000
B2   B   0.763077192985931   0.667226814043168   0.115559295663271   1.0000000
B2   B   0.763056629817699   0.810492370166220   0.111065951991179   1.0000000
N2   N   0.952504388730339   0.904805106731219   0.105604337329840   1.0000000
N2   N   0.952400840563856   0.047602237458932   0.104659475224436   1.0000000
N2   N   0.952288773539342   0.190397474047634   0.104404188188924   1.0000000
N2   N   0.952283116635531   0.333296813932318   0.104452816066383   1.0000000
N2   N   0.952381455712135   0.476194243003196   0.104770025025740   1.0000000
N2   N   0.952508192622097   0.619103585437934   0.105629422368704   1.0000000
N2   N   0.952550600654884   0.761981174200356   0.106461665956211   1.0000000
N2   N   0.095256478126784   0.904743815009821   0.104831658631971   1.0000000
N2   N   0.095196206810018   0.047496410142501   0.105610342708392   1.0000000
N2   N   0.094851694478587   0.190078065099415   0.107050973342664   1.0000000
N2   N   0.094851078014185   0.333130269464656   0.108341901995877   1.0000000
N2   N   0.094831879816740   0.476183010463758   0.107228883050344   1.0000000
N2   N   0.095173660008447   0.619117219546412   0.105727835532365   1.0000000
N2   N   0.095253868302871   0.761953871613878   0.104831831311238   1.0000000
N2   N   0.238046679576651   0.904746942670202   0.104835448654953   1.0000000
N2   N   0.238018166526890   0.047449216752814   0.106461735454517   1.0000000
N2   N   0.237864866901198   0.190102318070735   0.111328557987226   1.0000000
N2   N   0.236794774832491   0.332230010298219   0.115864842275843   1.0000000
N2   N   0.236795242781164   0.475994714377551   0.115949388198929   1.0000000
N2   N   0.237820864744304   0.619184553411416   0.111478679777452   1.0000000
N2   N   0.238000949518468   0.762001928290609   0.106612889049824   1.0000000
N2   N   0.380885344409563   0.904829215659200   0.105729196876718   1.0000000
N2   N   0.380897393175672   0.047493063281618   0.105634827617213   1.0000000
N2   N   0.380835841475749   0.190080981766812   0.111436624911939   1.0000000
N2   N   0.380543637174157   0.332465955271647   0.124700686326649   1.0000000
N2   N   0.375212202009400   0.473333380339542   0.135282074739050   1.0000000
N2   N   0.380508475079099   0.619494142672517   0.124774539923008   1.0000000
N2   N   0.380818022913679   0.762181466617816   0.111481903292546   1.0000000
N2   N   0.523819201722638   0.905170791705363   0.107235569366073   1.0000000
N2   N   0.523807180636494   0.047620819517329   0.104778177427346   1.0000000
N2   N   0.523832084023776   0.190094882325540   0.107218706086424   1.0000000
N2   N   0.524008788903563   0.332253393115643   0.116173938213460   1.0000000
N2   N   0.526632458309707   0.473368130839446   0.135750046711335   1.0000000
N2   N   0.526667795857643   0.624790617497274   0.135288117231246   1.0000000
N2   N   0.524008369251259   0.763206594673790   0.115947285759497   1.0000000
N2   N   0.666872123230292   0.905151006652705   0.108336091432931   1.0000000
N2   N   0.666706460767787   0.047720125024487   0.104456004430985   1.0000000
N2   N   0.666710575209636   0.190407781820003   0.104483762375711   1.0000000
N2   N   0.666867141792033   0.333133918533636   0.108468287990609   1.0000000
N2   N   0.667746600462512   0.475991379985778   0.116174518165603   1.0000000
N2   N   0.667534304041527   0.619458302036592   0.124693883831783   1.0000000
N2   N   0.667771459009682   0.763206154449499   0.115861652287424   1.0000000
N2   N   0.809925489437809   0.905151791325574   0.107049851165042   1.0000000
N2   N   0.809603876945261   0.047713294701040   0.104407751001255   1.0000000
N2   N   0.809529742739133   0.190471977931632   0.103502474566735   1.0000000
N2   N   0.809595433879239   0.333292079036339   0.104481992593531   1.0000000
N2   N   0.809907546528074   0.476169548296456   0.107212560079727   1.0000000
N2   N   0.809917360636567   0.619164452566092   0.111434492915379   1.0000000
N2   N   0.809899392039894   0.762137127913645   0.111331702313711   1.0000000
P2   P   0.476082914980565   0.523918886002965   0.170711864196006   1.0000000


