data_1
_audit_creation_method   'vasp2cif'
_cell_length_a    17.52789999999977
_cell_length_b    17.52789999999977
_cell_length_c    15.0
_cell_angle_alpha    90.0
_cell_angle_beta    90.0
_cell_angle_gamma    119.99999999999916

_symmetry_space_group_name_H-M    'P 1'
loop_
_atom_site_label
_atom_site_type_symbol
_atom_site_fract_x
_atom_site_fract_y
_atom_site_fract_z
_atom_site_occupancy
B2   B   0.905348133460615   0.953072755793790   0.111018419109534   1.0000000
B2   B   0.904675795909231   0.095326225286765   0.111037407269581   1.0000000
B2   B   0.904675795909231   0.237920876948466   0.111037407269581   1.0000000
B2   B   0.905348133460615   0.380848395548826   0.111018419109534   1.0000000
B2   B   0.907553397388352   0.524392544642090   0.111040826061536   1.0000000
B2   B   0.907692259943613   0.668132638913304   0.111061669793784   1.0000000
B2   B   0.907553397388352   0.811733870629265   0.111040826061536   1.0000000
B2   B   0.047799798813415   0.952202222382588   0.111024029877316   1.0000000
B2   B   0.046929265402213   0.094653887735381   0.111018419109534   1.0000000
B2   B   0.046709830748807   0.237641424315405   0.111014568947599   1.0000000
B2   B   0.046929265402213   0.380848395548826   0.111018419109534   1.0000000
B2   B   0.047799798813415   0.524172305869826   0.111024029877316   1.0000000
B2   B   0.048628336350467   0.667251228684413   0.111045873316908   1.0000000
B2   B   0.048628336350467   0.809951837105054   0.111045873316908   1.0000000
B2   B   0.190050184090950   0.951373684845536   0.111045873316908   1.0000000
B2   B   0.188268150566737   0.092448623807644   0.111040826061536   1.0000000
B2   B   0.188346863164094   0.236357943397775   0.111004685078292   1.0000000
B2   B   0.188346863164094   0.380561937648321   0.111004685078292   1.0000000
B2   B   0.188268150566737   0.524392544642090   0.111040826061536   1.0000000
B2   B   0.190050184090950   0.667251228684413   0.111045873316908   1.0000000
B2   B   0.190476437651000   0.809525583545003   0.111015762322774   1.0000000
B2   B   0.332750792512585   0.951373684845536   0.111045873316908   1.0000000
B2   B   0.331869382283693   0.092309761252384   0.111061669793784   1.0000000
B2   B   0.327681227660816   0.231082907876226   0.111012306899337   1.0000000
B2   B   0.329597910313733   0.379085464097366   0.110998404709059   1.0000000
B2   B   0.327681227660816   0.525171337666592   0.111012306899337   1.0000000
B2   B   0.331869382283693   0.668132638913304   0.111061669793784   1.0000000
B2   B   0.332750792512585   0.809951837105054   0.111045873316908   1.0000000
B2   B   0.475829715327172   0.952202222382588   0.111024029877316   1.0000000
B2   B   0.475609476554909   0.092448623807644   0.111040826061536   1.0000000
B2   B   0.474830683530406   0.231082907876226   0.111012306899337   1.0000000
B2   B   0.464487726286169   0.357546449257342   0.111003702440352   1.0000000
B2   B   0.464487726286169   0.535514294910829   0.111003702440352   1.0000000
B2   B   0.474830683530406   0.672320793536182   0.111012306899337   1.0000000
B2   B   0.475609476554909   0.811733870629265   0.111040826061536   1.0000000
B2   B   0.619153625647176   0.953072755793790   0.111018419109534   1.0000000
B2   B   0.619153625647176   0.094653887735381   0.111018419109534   1.0000000
B2   B   0.619440083547682   0.236357943397775   0.111004685078292   1.0000000
B2   B   0.620916557098637   0.379085464097366   0.110998404709059   1.0000000
B2   B   0.642455571938661   0.535514294910829   0.111003702440352   1.0000000
B2   B   0.620916557098637   0.670404110883266   0.110998404709059   1.0000000
B2   B   0.619440083547682   0.811655158031910   0.111004685078292   1.0000000
B2   B   0.762360596880599   0.953292190447196   0.111014568947599   1.0000000
B2   B   0.762081144247538   0.095326225286765   0.111037407269581   1.0000000
B2   B   0.762360596880599   0.237641424315405   0.111014568947599   1.0000000
B2   B   0.763644077798229   0.380561937648321   0.111004685078292   1.0000000
B2   B   0.768919113319778   0.525171337666592   0.111012306899337   1.0000000
B2   B   0.768919113319778   0.672320793536182   0.111012306899337   1.0000000
B2   B   0.763644077798229   0.811655158031910   0.111004685078292   1.0000000
N2   N   0.953304580861416   0.905842684584315   0.111007954321069   1.0000000
N2   N   0.952225623837298   0.047775778080707   0.111011406564226   1.0000000
N2   N   0.952042469418676   0.190306032085838   0.111018623085446   1.0000000
N2   N   0.952225623837298   0.333019440509591   0.111011406564226   1.0000000
N2   N   0.953304580861416   0.476033202586096   0.111007954321069   1.0000000
N2   N   0.953830847352651   0.619499031412743   0.111042494807883   1.0000000
N2   N   0.953830847352651   0.762903122249907   0.111042494807883   1.0000000
N2   N   0.095332115290030   0.904669286627968   0.111014180177386   1.0000000
N2   N   0.094158717333683   0.046696821056590   0.111007954321069   1.0000000
N2   N   0.094120772126169   0.189830478058186   0.110993702376999   1.0000000
N2   N   0.094120772126169   0.332861600376987   0.110993702376999   1.0000000
N2   N   0.094158717333683   0.476033202586096   0.111007954321069   1.0000000
N2   N   0.095332115290030   0.619235846528062   0.111014180177386   1.0000000
N2   N   0.095675399507380   0.762124208686693   0.111015148528398   1.0000000
N2   N   0.237877193231312   0.904326002410618   0.111015148528398   1.0000000
N2   N   0.237098279668099   0.046170554565354   0.111042494807883   1.0000000
N2   N   0.234502429887447   0.187056580819933   0.111007623615945   1.0000000
N2   N   0.235981142151118   0.332276224230057   0.110990736003078   1.0000000
N2   N   0.234502429887447   0.476017155376510   0.111007623615945   1.0000000
N2   N   0.237098279668099   0.619499031412743   0.111042494807883   1.0000000
N2   N   0.237877193231312   0.762124208686693   0.111015148528398   1.0000000
N2   N   0.380765555389937   0.904669286627968   0.111014180177386   1.0000000
N2   N   0.380502370505256   0.046170554565354   0.111042494807883   1.0000000
N2   N   0.379357422457843   0.187284749307684   0.111021546775611   1.0000000
N2   N   0.373668491448281   0.325872161906224   0.110978955315072   1.0000000
N2   N   0.373668491448281   0.476367635851053   0.110978955315072   1.0000000
N2   N   0.379357422457843   0.620643979460156   0.111021546775611   1.0000000
N2   N   0.380502370505256   0.762903122249907   0.111042494807883   1.0000000
N2   N   0.523968199330900   0.905842684584315   0.111007954321069   1.0000000
N2   N   0.523968199330900   0.046696821056590   0.111007954321069   1.0000000
N2   N   0.523984246540487   0.187056580819933   0.111007623615945   1.0000000
N2   N   0.523633766065944   0.325872161906224   0.110978955315072   1.0000000
N2   N   0.523633766065944   0.626332910469717   0.110978955315072   1.0000000
N2   N   0.523984246540487   0.765498972030559   0.111007623615945   1.0000000
N2   N   0.667139801540010   0.905880629791829   0.110993702376999   1.0000000
N2   N   0.666981961407405   0.047775778080707   0.111011406564226   1.0000000
N2   N   0.667139801540010   0.189830478058186   0.110993702376999   1.0000000
N2   N   0.667725177686940   0.332276224230057   0.110990736003078   1.0000000
N2   N   0.674129240010773   0.476367635851053   0.110978955315072   1.0000000
N2   N   0.674129240010773   0.626332910469717   0.110978955315072   1.0000000
N2   N   0.667725177686940   0.764020259766888   0.110990736003078   1.0000000
N2   N   0.810170923859814   0.905880629791829   0.110993702376999   1.0000000
N2   N   0.809695369832160   0.047958932499329   0.111018623085446   1.0000000
N2   N   0.809695369832160   0.190306032085838   0.111018623085446   1.0000000
N2   N   0.810170923859814   0.332861600376987   0.110993702376999   1.0000000
N2   N   0.812944821098066   0.476017155376510   0.111007623615945   1.0000000
N2   N   0.812716652610314   0.620643979460156   0.111021546775611   1.0000000
N2   N   0.812944821098066   0.765498972030559   0.111007623615945   1.0000000
Se2   Se   0.523810499174999   0.476190902741997   0.111392919746263   1.0000000


