data_1
_audit_creation_method   'vasp2cif'
_cell_length_a    14.93631414619966
_cell_length_b    14.936314146199727
_cell_length_c    13.341276283792837
_cell_angle_alpha    90.0
_cell_angle_beta    90.0
_cell_angle_gamma    119.99999999999984

_symmetry_space_group_name_H-M    'P 1'
loop_
_atom_site_label
_atom_site_type_symbol
_atom_site_fract_x
_atom_site_fract_y
_atom_site_fract_z
_atom_site_occupancy
Ga2   Ga   0.475880557158640   0.404606945245984   0.375000000000000   1.0000000
N2   N   0.111136180689772   0.055557491673471   0.124842009627494   1.0000000
N2   N   0.611145300253411   0.555591255330252   0.125870999378752   1.0000000
N2   N   0.444450817823555   0.055531907189233   0.124909095753234   1.0000000
N2   N   0.944474589216562   0.555572689025786   0.125041442549946   1.0000000
N2   N   0.777776990876574   0.055555162104955   0.124934356212135   1.0000000
N2   N   0.111130336197769   0.722231834765549   0.625050681181412   1.0000000
N2   N   0.444450817823555   0.722252243967658   0.625090904246766   1.0000000
N2   N   0.277820946048689   0.222228889633143   0.624978766649687   1.0000000
N2   N   0.777804483689880   0.722232583743352   0.624855060295159   1.0000000
N2   N   0.611111040588781   0.222204937617513   0.624940481315176   1.0000000
N2   N   0.944463099192771   0.222237970421601   0.625061067401447   1.0000000
N2   N   0.277787240166233   0.722235000055746   0.124951649964152   1.0000000
N2   N   0.111152081043032   0.222242707188180   0.124870329456668   1.0000000
N2   N   0.444481590842190   0.222206570737199   0.125223372734699   1.0000000
N2   N   0.611111040588781   0.722239436304597   0.125059518684824   1.0000000
N2   N   0.944474589216562   0.722235233524112   0.125041442549946   1.0000000
N2   N   0.777782056782916   0.222229081402576   0.124991447666434   1.0000000
N2   N   0.111129679752514   0.888888178054332   0.625051955837116   1.0000000
N2   N   0.444442120855964   0.888887727094647   0.625054312727770   1.0000000
N2   N   0.277820946048689   0.388925389748874   0.624978766649687   1.0000000
N2   N   0.611145300253411   0.388887378256488   0.624129000621248   1.0000000
N2   N   0.777782056782916   0.888886308713668   0.625008552333566   1.0000000
N2   N   0.944467173120416   0.388906118429752   0.625039908164169   1.0000000
N2   N   0.111136180689772   0.388912022349629   0.124842009627494   1.0000000
N2   N   0.277787240166233   0.888885573443818   0.124951649964152   1.0000000
N2   N   0.611107246780077   0.888895492090471   0.124940353583315   1.0000000
N2   N   0.444574727765495   0.388954030549412   0.128483112336821   1.0000000
N2   N   0.944467173120416   0.888894388023991   0.124960091835831   1.0000000
N2   N   0.777804483689880   0.388905233279857   0.125144939704841   1.0000000
N2   N   0.277794735946247   0.555585145262325   0.625097573133107   1.0000000
N2   N   0.111136180689772   0.055557491673471   0.625157990372506   1.0000000
N2   N   0.611145300253411   0.555591255330252   0.624129000621248   1.0000000
N2   N   0.444450817823555   0.055531907189233   0.625090904246766   1.0000000
N2   N   0.944474589216562   0.555572689025786   0.624958557450054   1.0000000
N2   N   0.111129679752514   0.555574835031511   0.124948044162884   1.0000000
N2   N   0.777776990876574   0.055555162104955   0.625065643787866   1.0000000
N2   N   0.277794735946247   0.055542924017256   0.124902426866894   1.0000000
N2   N   0.444481590842190   0.555608353438326   0.125223372734699   1.0000000
N2   N   0.777799351045368   0.555566342189351   0.125371759126509   1.0000000
N2   N   0.611107246780077   0.055545088022936   0.124940353583315   1.0000000
N2   N   0.444481590842190   0.555608353438326   0.624776627265301   1.0000000
N2   N   0.944463099192771   0.055558462104506   0.124938932598553   1.0000000
N2   N   0.277787240166233   0.722235000055746   0.625048350035848   1.0000000
N2   N   0.111152081043032   0.222242707188180   0.625129670543332   1.0000000
N2   N   0.444481590842190   0.222206570737199   0.624776627265301   1.0000000
N2   N   0.611111040588781   0.722239436304597   0.624940481315176   1.0000000
N2   N   0.944474589216562   0.722235233524112   0.624958557450054   1.0000000
N2   N   0.777782056782916   0.222229081402576   0.625008552333566   1.0000000
N2   N   0.111130336197769   0.722231834765549   0.124949318818587   1.0000000
N2   N   0.444450817823555   0.722252243967658   0.124909095753234   1.0000000
N2   N   0.277820946048689   0.222228889633143   0.125021233350314   1.0000000
N2   N   0.777804483689880   0.722232583743352   0.125144939704841   1.0000000
N2   N   0.611111040588781   0.222204937617513   0.125059518684824   1.0000000
N2   N   0.944463099192771   0.222237970421601   0.124938932598553   1.0000000
N2   N   0.111136180689772   0.388912022349629   0.625157990372506   1.0000000
N2   N   0.277787240166233   0.888885573443818   0.625048350035848   1.0000000
N2   N   0.611107246780077   0.888895492090471   0.625059646416685   1.0000000
N2   N   0.444574727765495   0.388954030549412   0.621516887663179   1.0000000
N2   N   0.944467173120416   0.888894388023991   0.625039908164169   1.0000000
N2   N   0.111129679752514   0.888888178054332   0.124948044162884   1.0000000
N2   N   0.777804483689880   0.388905233279857   0.624855060295159   1.0000000
N2   N   0.444442120855964   0.888887727094647   0.124945687272230   1.0000000
N2   N   0.277820946048689   0.388925389748874   0.125021233350314   1.0000000
N2   N   0.277794735946247   0.555585145262325   0.124902426866894   1.0000000
N2   N   0.611145300253411   0.388887378256488   0.125870999378752   1.0000000
N2   N   0.777782056782916   0.888886308713668   0.124991447666434   1.0000000
N2   N   0.944467173120416   0.388906118429752   0.124960091835831   1.0000000
N2   N   0.111129679752514   0.555574835031511   0.625051955837116   1.0000000
N2   N   0.277794735946247   0.055542924017256   0.625097573133107   1.0000000
N2   N   0.777799351045368   0.555566342189351   0.624628240873491   1.0000000
N2   N   0.611107246780077   0.055545088022936   0.625059646416685   1.0000000
N2   N   0.944463099192771   0.055558462104506   0.625061067401447   1.0000000
N2   N   0.055864020591565   0.111324539208562   0.375000000000000   1.0000000
N2   N   0.554654607669636   0.612442791616105   0.375000000000000   1.0000000
N2   N   0.387428662050824   0.105912153183228   0.375000000000000   1.0000000
N2   N   0.887464499377090   0.610398916355217   0.375000000000000   1.0000000
N2   N   0.722437199003412   0.110957069001917   0.375000000000000   1.0000000
N2   N   0.055556921300168   0.777779695821992   0.875000000000000   1.0000000
N2   N   0.388889413255669   0.777778147847205   0.875000000000000   1.0000000
N2   N   0.222223429014033   0.277778381173684   0.875000000000000   1.0000000
N2   N   0.722225273150082   0.777779530201998   0.875000000000000   1.0000000
N2   N   0.555559515483773   0.277776106799129   0.875000000000000   1.0000000
N2   N   0.888893095887068   0.277775112195583   0.875000000000000   1.0000000
N2   N   0.220693591644397   0.777013462488866   0.375000000000000   1.0000000
N2   N   0.055864020591565   0.277872814716339   0.375000000000000   1.0000000
N2   N   0.386864218265717   0.267675552869785   0.375000000000000   1.0000000
N2   N   0.555363417828236   0.778835332484595   0.375000000000000   1.0000000
N2   N   0.888043602884168   0.777430654530927   0.375000000000000   1.0000000
N2   N   0.722151388588150   0.277161428157172   0.375000000000000   1.0000000
N2   N   0.055555028518196   0.944445514600455   0.875000000000000   1.0000000
N2   N   0.388889413255669   0.944444598741800   0.875000000000000   1.0000000
N2   N   0.222213870220166   0.444442360732267   0.875000000000000   1.0000000
N2   N   0.555548283991088   0.444440808662208   0.875000000000000   1.0000000
N2   N   0.722228648964103   0.944448524269656   0.875000000000000   1.0000000
N2   N   0.888901669229633   0.444445450747981   0.875000000000000   1.0000000
N2   N   0.054572576975365   0.444302195539173   0.375000000000000   1.0000000
N2   N   0.220593798412215   0.942601079924809   0.375000000000000   1.0000000
N2   N   0.555428498443317   0.944380915888322   0.375000000000000   1.0000000
N2   N   0.386864218265717   0.452521998729268   0.375000000000000   1.0000000
N2   N   0.888926903118960   0.944702129603685   0.375000000000000   1.0000000
N2   N   0.721296832222243   0.444153051329025   0.375000000000000   1.0000000
N2   N   0.222222785693906   0.611108988574353   0.875000000000000   1.0000000
N2   N   0.055553306987921   0.111111669504219   0.875000000000000   1.0000000
N2   N   0.555559515483773   0.611116742017980   0.875000000000000   1.0000000
N2   N   0.388895173386111   0.111122099293460   0.875000000000000   1.0000000
N2   N   0.888884283302951   0.611108808318148   0.875000000000000   1.0000000
N2   N   0.054000905407879   0.610545687552897   0.375000000000000   1.0000000
N2   N   0.722228648964103   0.111113458027782   0.875000000000000   1.0000000
N2   N   0.220953231699557   0.109133881193056   0.375000000000000   1.0000000
N2   N   0.387428662050824   0.614849842200938   0.375000000000000   1.0000000
N2   N   0.721296832222243   0.610477114226553   0.375000000000000   1.0000000
N2   N   0.555363417828236   0.109861418676976   0.375000000000000   1.0000000
N2   N   0.388895173386111   0.611106407425994   0.875000000000000   1.0000000
N2   N   0.889177752026764   0.111255542680053   0.375000000000000   1.0000000
N2   N   0.222221752008644   0.777777542670990   0.875000000000000   1.0000000
N2   N   0.055553306987921   0.277774970817038   0.875000000000000   1.0000000
N2   N   0.388890151165797   0.277787599172330   0.875000000000000   1.0000000
N2   N   0.555556993967240   0.777787766442424   0.875000000000000   1.0000000
N2   N   0.888901669229633   0.777789551814987   0.875000000000000   1.0000000
N2   N   0.722225273150082   0.277779076281418   0.875000000000000   1.0000000
N2   N   0.054000905407879   0.776788551188318   0.375000000000000   1.0000000
N2   N   0.387905340350474   0.778528114011112   0.375000000000000   1.0000000
N2   N   0.223603371767057   0.278468352550196   0.375000000000000   1.0000000
N2   N   0.722151388588150   0.778323293764314   0.375000000000000   1.0000000
N2   N   0.554654607669636   0.275545149386866   0.375000000000000   1.0000000
N2   N   0.888926903118960   0.277558106848610   0.375000000000000   1.0000000
N2   N   0.055555028518196   0.444442847251070   0.875000000000000   1.0000000
N2   N   0.222222785693906   0.944447130452890   0.875000000000000   1.0000000
N2   N   0.555557463397402   0.944445398365366   0.875000000000000   1.0000000
N2   N   0.388890151165797   0.444435885326802   0.875000000000000   1.0000000
N2   N   0.888893095887068   0.944451317024821   0.875000000000000   1.0000000
N2   N   0.054572576975365   0.943603714769521   0.375000000000000   1.0000000
N2   N   0.722224183888966   0.444440264610606   0.875000000000000   1.0000000
N2   N   0.387905340350474   0.942710559672698   0.375000000000000   1.0000000
N2   N   0.220953231699557   0.445152683839837   0.375000000000000   1.0000000
N2   N   0.220593798412215   0.611326051820742   0.375000000000000   1.0000000
N2   N   0.722437199003412   0.944813463334830   0.375000000000000   1.0000000
N2   N   0.888043602884168   0.443946281686576   0.375000000000000   1.0000000
N2   N   0.055556921300168   0.611110558811511   0.875000000000000   1.0000000
N2   N   0.222213870220166   0.111104842821235   0.875000000000000   1.0000000
N2   N   0.722224183888966   0.611117252611696   0.875000000000000   1.0000000
N2   N   0.555556993967240   0.111102560858151   0.875000000000000   1.0000000
N2   N   0.888892385750653   0.111112859541998   0.875000000000000   1.0000000
B2   B   0.110280604591931   0.054699190761625   0.375000000000000   1.0000000
B2   B   0.614772956723421   0.564870094844168   0.375000000000000   1.0000000
B2   B   0.443897533455601   0.052488678536883   0.375000000000000   1.0000000
B2   B   0.943625369700816   0.554981832590468   0.375000000000000   1.0000000
B2   B   0.778327977952572   0.055830655642954   0.375000000000000   1.0000000
B2   B   0.111319946479828   0.722326639906578   0.875000000000000   1.0000000
B2   B   0.444343504153684   0.722042282998800   0.875000000000000   1.0000000
B2   B   0.277636469451381   0.222293500536946   0.875000000000000   1.0000000
B2   B   0.777715899042108   0.722364775139136   0.875000000000000   1.0000000
B2   B   0.611308093832870   0.222284764944646   0.875000000000000   1.0000000
B2   B   0.944357631528842   0.222020934989949   0.875000000000000   1.0000000
B2   B   0.276572992883114   0.722198133220327   0.375000000000000   1.0000000
B2   B   0.112071720956985   0.222702527145157   0.375000000000000   1.0000000
B2   B   0.441372765355933   0.214546718483271   0.375000000000000   1.0000000
B2   B   0.611758578902141   0.725184618439970   0.375000000000000   1.0000000
B2   B   0.943625369700816   0.721976870443682   0.375000000000000   1.0000000
B2   B   0.778302551919685   0.221607040962753   0.375000000000000   1.0000000
B2   B   0.111019290704510   0.888998985543412   0.875000000000000   1.0000000
B2   B   0.444637314152355   0.888985323742842   0.875000000000000   1.0000000
B2   B   0.277636469451381   0.388676302247763   0.875000000000000   1.0000000
B2   B   0.611034932972310   0.388946997953430   0.875000000000000   1.0000000
B2   B   0.777708135365496   0.888739710030125   0.875000000000000   1.0000000
B2   B   0.944665080481860   0.388979038068955   0.875000000000000   1.0000000
B2   B   0.110280604591931   0.388914747163634   0.375000000000000   1.0000000
B2   B   0.276572992883114   0.887708192996115   0.375000000000000   1.0000000
B2   B   0.611502840121325   0.889835909064643   0.375000000000000   1.0000000
B2   B   0.944056734892252   0.888993493525156   0.375000000000000   1.0000000
B2   B   0.778138207796925   0.387603203443500   0.375000000000000   1.0000000
B2   B   0.277943444437213   0.555635329382925   0.875000000000000   1.0000000
B2   B   0.111006440279508   0.055363432596526   0.875000000000000   1.0000000
B2   B   0.611034932972310   0.555421268352209   0.875000000000000   1.0000000
B2   B   0.444343504153684   0.055634554488220   0.875000000000000   1.0000000
B2   B   0.944380293738986   0.555650757581748   0.875000000000000   1.0000000
B2   B   0.109780601074499   0.555259199966959   0.375000000000000   1.0000000
B2   B   0.777995610715662   0.055664472024499   0.875000000000000   1.0000000
B2   B   0.276000946239094   0.053078173219414   0.375000000000000   1.0000000
B2   B   0.441372765355933   0.560159380205998   0.375000000000000   1.0000000
B2   B   0.778114314861446   0.555723824097389   0.375000000000000   1.0000000
B2   B   0.611502840121325   0.055000264390010   0.375000000000000   1.0000000
B2   B   0.444319168592738   0.555653214510560   0.875000000000000   1.0000000
B2   B   0.944923741494754   0.056045195030261   0.375000000000000   1.0000000
B2   B   0.277672579742997   0.722316322459853   0.875000000000000   1.0000000
B2   B   0.111282296267547   0.222307814800438   0.875000000000000   1.0000000
B2   B   0.444319168592738   0.221999287415512   0.875000000000000   1.0000000
B2   B   0.611308093832870   0.722356662221552   0.875000000000000   1.0000000
B2   B   0.944380293738986   0.722062869490572   0.875000000000000   1.0000000
B2   B   0.777708135365496   0.222301758668699   0.875000000000000   1.0000000
B2   B   0.109808761279481   0.721571047306405   0.375000000000000   1.0000000
B2   B   0.443897533455601   0.724742188252054   0.375000000000000   1.0000000
B2   B   0.277219551843474   0.220369205470299   0.375000000000000   1.0000000
B2   B   0.778138207796925   0.723868337686753   0.375000000000000   1.0000000
B2   B   0.611758578902141   0.219907293795501   0.375000000000000   1.0000000
B2   B   0.944923741494754   0.222211879797828   0.375000000000000   1.0000000
B2   B   0.111006440279508   0.388976341016311   0.875000000000000   1.0000000
B2   B   0.277672579742997   0.888689590616472   0.875000000000000   1.0000000
B2   B   0.611020245357575   0.889004384042012   0.875000000000000   1.0000000
B2   B   0.444554512418061   0.388943922875695   0.875000000000000   1.0000000
B2   B   0.944665080481860   0.889019375746234   0.875000000000000   1.0000000
B2   B   0.109780601074499   0.887854734440869   0.375000000000000   1.0000000
B2   B   0.777715899042108   0.388684457236302   0.875000000000000   1.0000000
B2   B   0.444148659316185   0.888740996324757   0.375000000000000   1.0000000
B2   B   0.277219551843474   0.390183679706504   0.375000000000000   1.0000000
B2   B   0.276000946239094   0.556256106353016   0.375000000000000   1.0000000
B2   B   0.614772956723421   0.383236195212582   0.375000000000000   1.0000000
B2   B   0.778302551919685   0.890028844290261   0.375000000000000   1.0000000
B2   B   0.944056734892252   0.388396574700424   0.375000000000000   1.0000000
B2   B   0.111019290704510   0.555353638494428   0.875000000000000   1.0000000
B2   B   0.277943444437213   0.055641448387624   0.875000000000000   1.0000000
B2   B   0.778001900139667   0.555667616736501   0.875000000000000   1.0000000
B2   B   0.611020245357575   0.055349194648891   0.875000000000000   1.0000000
B2   B   0.944357631528842   0.055670029872230   0.875000000000000   1.0000000
B2   B   0.055585845533925   0.111126603981246   0.125101690875073   1.0000000
B2   B   0.555474253856019   0.611293596585880   0.125061100697168   1.0000000
B2   B   0.388780077524947   0.110899576643290   0.124985321257394   1.0000000
B2   B   0.889122413479220   0.611227873406282   0.125028737865523   1.0000000
B2   B   0.722224689687975   0.111065656935627   0.125083652190599   1.0000000
B2   B   0.055686473756772   0.777846785979050   0.624897164167168   1.0000000
B2   B   0.388842778723250   0.777811954094623   0.624911436017698   1.0000000
B2   B   0.222166550015344   0.277749941674340   0.624851727461376   1.0000000
B2   B   0.722281483082165   0.777919004882833   0.625023973535172   1.0000000
B2   B   0.555474253856019   0.277513990603475   0.624938899302830   1.0000000
B2   B   0.888959976158383   0.277773980540071   0.624898786037407   1.0000000
B2   B   0.222255704606371   0.777794518969853   0.125071863193655   1.0000000
B2   B   0.055585845533925   0.277792574886014   0.125101690875073   1.0000000
B2   B   0.388650361773821   0.277427777125664   0.126253721961793   1.0000000
B2   B   0.555498911575753   0.777879885423739   0.125025619999061   1.0000000
B2   B   0.889060645440975   0.777912919404777   0.125066374756733   1.0000000
B2   B   0.722281483082165   0.277695811532667   0.124976026464827   1.0000000
B2   B   0.055627339266804   0.944486667226770   0.624959590187835   1.0000000
B2   B   0.388842778723250   0.944364157961964   0.624911436017698   1.0000000
B2   B   0.222177905310583   0.444480621260068   0.624938069308313   1.0000000
B2   B   0.555698940901525   0.444516137117427   0.624425457471378   1.0000000
B2   B   0.722224689687975   0.944492366085683   0.624916347809402   1.0000000
B2   B   0.889060645440975   0.444481059369533   0.624933625243267   1.0000000
B2   B   0.055627339266804   0.444474005373365   0.125040409812166   1.0000000
B2   B   0.222227491151309   0.944405481743339   0.125112979305392   1.0000000
B2   B   0.555512766686727   0.944423050010028   0.125029412370587   1.0000000
B2   B   0.388650361773821   0.444555917981493   0.126253721961793   1.0000000
B2   B   0.888959976158383   0.944519328951648   0.125101213962592   1.0000000
B2   B   0.722458732474255   0.444488722772559   0.125066112222376   1.0000000
B2   B   0.222227491151309   0.611155342741307   0.624887020694609   1.0000000
B2   B   0.055585845533925   0.111126603981246   0.624898309124927   1.0000000
B2   B   0.555474253856019   0.611293596585880   0.624938899302830   1.0000000
B2   B   0.388780077524947   0.110899576643290   0.625014678742606   1.0000000
B2   B   0.889122413479220   0.611227873406282   0.624971262134477   1.0000000
B2   B   0.055686473756772   0.611173021111057   0.125102835832832   1.0000000
B2   B   0.722224689687975   0.111065656935627   0.624916347809402   1.0000000
B2   B   0.222177905310583   0.111030617383850   0.125061930691687   1.0000000
B2   B   0.388780077524947   0.611213834214999   0.124985321257394   1.0000000
B2   B   0.722458732474255   0.611303343035031   0.125066112222376   1.0000000
B2   B   0.555498911575753   0.110952359485348   0.125025619999061   1.0000000
B2   B   0.388780077524947   0.611213834214999   0.625014678742606   1.0000000
B2   B   0.888924582271779   0.111128957802561   0.125069700137319   1.0000000
B2   B   0.222255704606371   0.777794518969853   0.624928136806345   1.0000000
B2   B   0.055585845533925   0.277792574886014   0.624898309124927   1.0000000
B2   B   0.388650361773821   0.277427777125664   0.623746278038208   1.0000000
B2   B   0.555498911575753   0.777879885423739   0.624974380000940   1.0000000
B2   B   0.889060645440975   0.777912919404777   0.624933625243267   1.0000000
B2   B   0.722281483082165   0.277695811532667   0.625023973535172   1.0000000
B2   B   0.055686473756772   0.777846785979050   0.125102835832832   1.0000000
B2   B   0.388842778723250   0.777811954094623   0.125088563982302   1.0000000
B2   B   0.222166550015344   0.277749941674340   0.125148272538624   1.0000000
B2   B   0.722281483082165   0.777919004882833   0.124976026464827   1.0000000
B2   B   0.555474253856019   0.277513990603475   0.125061100697168   1.0000000
B2   B   0.888959976158383   0.277773980540071   0.125101213962592   1.0000000
B2   B   0.055627339266804   0.444474005373365   0.624959590187835   1.0000000
B2   B   0.222227491151309   0.944405481743339   0.624887020694609   1.0000000
B2   B   0.555512766686727   0.944423050010028   0.624970587629414   1.0000000
B2   B   0.388650361773821   0.444555917981493   0.623746278038208   1.0000000
B2   B   0.888959976158383   0.944519328951648   0.624898786037407   1.0000000
B2   B   0.055627339266804   0.944486667226770   0.125040409812166   1.0000000
B2   B   0.722458732474255   0.444488722772559   0.624933887777624   1.0000000
B2   B   0.388842778723250   0.944364157961964   0.125088563982302   1.0000000
B2   B   0.222177905310583   0.444480621260068   0.125061930691687   1.0000000
B2   B   0.222227491151309   0.611155342741307   0.125112979305392   1.0000000
B2   B   0.555698940901525   0.444516137117427   0.125574542528622   1.0000000
B2   B   0.722224689687975   0.944492366085683   0.125083652190599   1.0000000
B2   B   0.889060645440975   0.444481059369533   0.125066374756733   1.0000000
B2   B   0.055686473756772   0.611173021111057   0.624897164167168   1.0000000
B2   B   0.222177905310583   0.111030617383850   0.624938069308313   1.0000000
B2   B   0.722458732474255   0.611303343035031   0.624933887777624   1.0000000
B2   B   0.555498911575753   0.110952359485348   0.624974380000940   1.0000000
B2   B   0.888924582271779   0.111128957802561   0.624930299862681   1.0000000


