data_1
_audit_creation_method   'vasp2cif'
_cell_length_a    17.52789999999977
_cell_length_b    17.52789999999977
_cell_length_c    15.0
_cell_angle_alpha    90.0
_cell_angle_beta    90.0
_cell_angle_gamma    119.99999999999916

_symmetry_space_group_name_H-M    'P 1'
loop_
_atom_site_label
_atom_site_type_symbol
_atom_site_fract_x
_atom_site_fract_y
_atom_site_fract_z
_atom_site_occupancy
S2   S   0.494678027013948   0.505323374902976   0.111463305637616   1.0000000
B2   B   0.905654752538344   0.952971143827990   0.110923880070691   1.0000000
B2   B   0.904620189659639   0.095381831536317   0.110941440922445   1.0000000
B2   B   0.904361410695837   0.238179055684197   0.110947919079552   1.0000000
B2   B   0.904366259903652   0.380920717098879   0.110900459847154   1.0000000
B2   B   0.904559048754721   0.523667896684012   0.110965836183236   1.0000000
B2   B   0.906003267457033   0.666850834358571   0.111107459366050   1.0000000
B2   B   0.906926725176535   0.810730071994042   0.111041723636253   1.0000000
B2   B   0.048149415432482   0.951852605763582   0.110963289133152   1.0000000
B2   B   0.047030877368007   0.094347268657654   0.110923880070691   1.0000000
B2   B   0.046816402489005   0.237478828695141   0.110911586644855   1.0000000
B2   B   0.047320626746303   0.380555225096437   0.110920256398012   1.0000000
B2   B   0.048144504582126   0.523284540987072   0.110937081331205   1.0000000
B2   B   0.048563739571962   0.666088844811222   0.111034739689870   1.0000000
B2   B   0.048697021975347   0.809091203377136   0.111059642563202   1.0000000
B2   B   0.190910817818850   0.951304999220719   0.111059642563202   1.0000000
B2   B   0.189271949202027   0.093075296019467   0.111041723636253   1.0000000
B2   B   0.188268796738570   0.235634860179812   0.110977402182376   1.0000000
B2   B   0.189489725828366   0.379584767083925   0.110961052623828   1.0000000
B2   B   0.191831241990337   0.522707784694344   0.110990143062618   1.0000000
B2   B   0.191675714222284   0.665599502690350   0.111034787304682   1.0000000
B2   B   0.191441392195571   0.808560629000430   0.111012694247360   1.0000000
B2   B   0.333913176385742   0.951438281624005   0.111034739689870   1.0000000
B2   B   0.333151186838437   0.093998753738987   0.111107459366050   1.0000000
B2   B   0.329733141884468   0.233834161452455   0.111091160054519   1.0000000
B2   B   0.329038837273099   0.376216477594695   0.111089581115542   1.0000000
B2   B   0.336044485363949   0.522059264249933   0.111173764444882   1.0000000
B2   B   0.334963233811900   0.665038787385048   0.111127383620787   1.0000000
B2   B   0.334402518506723   0.808326306973702   0.111034787304682   1.0000000
B2   B   0.476717480209947   0.951857516613908   0.110937081331205   1.0000000
B2   B   0.476334124512916   0.095442972441254   0.110965836183236   1.0000000
B2   B   0.475535009581623   0.238577939611510   0.111114802533167   1.0000000
B2   B   0.467558467729765   0.373367171120603   0.111401950447916   1.0000000
B2   B   0.477942756947106   0.663957535833107   0.111173764444882   1.0000000
B2   B   0.477294236502698   0.808170779205736   0.110990143062618   1.0000000
B2   B   0.619446796099550   0.952681394449691   0.110920256398012   1.0000000
B2   B   0.619081304097095   0.095635761292272   0.110900459847154   1.0000000
B2   B   0.619159360405130   0.239034798431197   0.110991561360541   1.0000000
B2   B   0.618202750296355   0.381799270899646   0.111060506390576   1.0000000
B2   B   0.626634850075429   0.532443553467229   0.111401950447916   1.0000000
B2   B   0.623785543601252   0.670963183923883   0.111089581115542   1.0000000
B2   B   0.620417254112114   0.810512295367557   0.110961052623828   1.0000000
B2   B   0.762523192500821   0.953185618706956   0.110911586644855   1.0000000
B2   B   0.761822965511824   0.095640610500216   0.110947919079552   1.0000000
B2   B   0.761592428997232   0.238409592198767   0.110959469958420   1.0000000
B2   B   0.760967222764835   0.380842660790936   0.110991561360541   1.0000000
B2   B   0.761424081584545   0.524467011615315   0.111114802533167   1.0000000
B2   B   0.766167859743564   0.670268879312551   0.111091160054519   1.0000000
B2   B   0.764367161016213   0.811733224457383   0.110977402182376   1.0000000
N2   N   0.953454519314564   0.905359734652470   0.110936291305762   1.0000000
N2   N   0.952301545103299   0.047699856814711   0.110907483959403   1.0000000
N2   N   0.951893888571636   0.190413654463373   0.110920734235173   1.0000000
N2   N   0.952133989954609   0.333368368791770   0.110895864727407   1.0000000
N2   N   0.952553090154520   0.476181564974707   0.110888667672426   1.0000000
N2   N   0.953170265429330   0.618914712410871   0.111028707167744   1.0000000
N2   N   0.953621362090356   0.762092042152914   0.111077591357538   1.0000000
N2   N   0.095848131720825   0.904153270197181   0.111003453425069   1.0000000
N2   N   0.094641667265509   0.046546882603442   0.110936291305762   1.0000000
N2   N   0.093781618606859   0.189197020799304   0.110909066549764   1.0000000
N2   N   0.094552283855107   0.332675493045912   0.110904876082015   1.0000000
N2   N   0.096154234809381   0.475729542994140   0.110914188989274   1.0000000
N2   N   0.096272440066068   0.618452694701247   0.110984356648967   1.0000000
N2   N   0.096218888197307   0.761281203693658   0.111024117943521   1.0000000
N2   N   0.238720198224341   0.903782513720692   0.111024117943521   1.0000000
N2   N   0.237909359765068   0.046380039827573   0.111077591357538   1.0000000
N2   N   0.235467830013038   0.187642139633528   0.111014375668346   1.0000000
N2   N   0.235122362127453   0.330537297817815   0.110965696741152   1.0000000
N2   N   0.239800761564123   0.474807116157389   0.111001170955555   1.0000000
N2   N   0.239560494557380   0.617905698757633   0.111054487934157   1.0000000
N2   N   0.239154349771408   0.760847052146537   0.111011555471064   1.0000000
N2   N   0.381548707216728   0.903728961851933   0.110984356648967   1.0000000
N2   N   0.381086689507155   0.046831136488678   0.111028707167744   1.0000000
N2   N   0.380107136834508   0.189284698717322   0.111111921974914   1.0000000
N2   N   0.374908632037441   0.328158822955076   0.111125126881519   1.0000000
N2   N   0.380139457588493   0.470429245282250   0.111215401576532   1.0000000
N2   N   0.382876747716644   0.617124654201394   0.111187428253059   1.0000000
N2   N   0.382095703160396   0.760440907360605   0.111054487934157   1.0000000
N2   N   0.524271858922880   0.903847167108660   0.110914188989274   1.0000000
N2   N   0.523819836942305   0.047448311763504   0.110888667672426   1.0000000
N2   N   0.523451606880019   0.191237575183244   0.110980353811803   1.0000000
N2   N   0.522786529375762   0.335807144431542   0.111215385152058   1.0000000
N2   N   0.529572156634841   0.619861944329528   0.111215401576532   1.0000000
N2   N   0.525194285759617   0.760200640353849   0.111001170955555   1.0000000
N2   N   0.667325908871137   0.905449118062859   0.110904876082015   1.0000000
N2   N   0.666633033125261   0.047867411963362   0.110895864727407   1.0000000
N2   N   0.666409926300054   0.190815742390441   0.110930423386829   1.0000000
N2   N   0.666138029109202   0.333863372807806   0.111001489643274   1.0000000
N2   N   0.664194257485477   0.477214872541188   0.111215385152058   1.0000000
N2   N   0.671842578961875   0.625092769880631   0.111125126881519   1.0000000
N2   N   0.669464104099225   0.764879039790584   0.110965696741152   1.0000000
N2   N   0.810804381118752   0.906219783311162   0.110909066549764   1.0000000
N2   N   0.809587747454623   0.048107513346296   0.110920734235173   1.0000000
N2   N   0.809271272183910   0.190730129734121   0.110945152254541   1.0000000
N2   N   0.809185659527485   0.333591475616956   0.110930423386829   1.0000000
N2   N   0.808763826734778   0.476549795037032   0.110980353811803   1.0000000
N2   N   0.810716703200714   0.619894265083527   0.111111921974914   1.0000000
N2   N   0.812359262284502   0.764533571904932   0.111014375668346   1.0000000


