data_1
_audit_creation_method   'vasp2cif'
_cell_length_a    17.52789999999977
_cell_length_b    17.52789999999977
_cell_length_c    15.0
_cell_angle_alpha    90.0
_cell_angle_beta    90.0
_cell_angle_gamma    119.99999999999916

_symmetry_space_group_name_H-M    'P 1'
loop_
_atom_site_label
_atom_site_type_symbol
_atom_site_fract_x
_atom_site_fract_y
_atom_site_fract_z
_atom_site_occupancy
In2   In   0.498236216588133   0.501765185328864   0.111201597750707   1.0000000
B2   B   0.906423936607169   0.953656595475209   0.111000538515087   1.0000000
B2   B   0.904490482048024   0.095511539147973   0.111017863993139   1.0000000
B2   B   0.903882432433722   0.238110146090692   0.111030159238905   1.0000000
B2   B   0.904159479057772   0.380922013485941   0.110988982435098   1.0000000
B2   B   0.905807207631222   0.523955979931376   0.111035576924139   1.0000000
B2   B   0.907280459322685   0.667399674628979   0.111091917312773   1.0000000
B2   B   0.908255394753719   0.811583231724577   0.111036980522360   1.0000000
B2   B   0.048357851956809   0.951644169239194   0.111007476546254   1.0000000
B2   B   0.046345425720797   0.093578084588829   0.111000538515087   1.0000000
B2   B   0.045714056760146   0.236787932679982   0.110979715011887   1.0000000
B2   B   0.046218356009104   0.380141254152702   0.111000196237621   1.0000000
B2   B   0.047724897828980   0.523266537661011   0.111007823823657   1.0000000
B2   B   0.049124922359307   0.666207768239023   0.111047924708365   1.0000000
B2   B   0.049267729147452   0.809125761920623   0.111043188177708   1.0000000
B2   B   0.190876259275380   0.950734292048554   0.111043188177708   1.0000000
B2   B   0.188418789471423   0.091746626442275   0.111036980522360   1.0000000
B2   B   0.185925238416490   0.233337070843126   0.110987243741244   1.0000000
B2   B   0.187346480759197   0.378498210948541   0.111052141592512   1.0000000
B2   B   0.189570177533646   0.522432361962987   0.111057942252566   1.0000000
B2   B   0.191777193294337   0.665564673670903   0.111019564130425   1.0000000
B2   B   0.191651612775551   0.808350408420448   0.110982742164361   1.0000000
B2   B   0.333794252957975   0.950877098836694   0.111047924708365   1.0000000
B2   B   0.332602346568028   0.092721561873312   0.111091917312773   1.0000000
B2   B   0.327847614128091   0.231313412464225   0.111003956586778   1.0000000
B2   B   0.324464491809014   0.373531263105537   0.111043637775087   1.0000000
B2   B   0.331215467151728   0.520041744258815   0.111090281781751   1.0000000
B2   B   0.335124943066140   0.664877078130857   0.111078514452843   1.0000000
B2   B   0.334437347526095   0.808224827901665   0.111019564130425   1.0000000
B2   B   0.476735483535983   0.952277123367024   0.111007823823657   1.0000000
B2   B   0.476046041265620   0.094194813564786   0.111035576924139   1.0000000
B2   B   0.474960784385328   0.235437295942700   0.111020435591045   1.0000000
B2   B   0.466093830557739   0.367541392955800   0.111097556161903   1.0000000
B2   B   0.479960276938180   0.668786554045274   0.111090281781751   1.0000000
B2   B   0.477569659234013   0.810431843662352   0.111057942252566   1.0000000
B2   B   0.619860767043305   0.953783665186900   0.111000196237621   1.0000000
B2   B   0.619080007710064   0.095842542138214   0.110988982435098   1.0000000
B2   B   0.618684819091977   0.238462016672895   0.110978452168010   1.0000000
B2   B   0.618243970931657   0.381758050264346   0.111002107547928   1.0000000
B2   B   0.632460628240208   0.533908190639246   0.111097556161903   1.0000000
B2   B   0.626470758090465   0.675537529387984   0.111043637775087   1.0000000
B2   B   0.621503810247454   0.812655540436805   0.111052141592512   1.0000000
B2   B   0.763214088516034   0.954287964435859   0.110979715011887   1.0000000
B2   B   0.761891875105310   0.096119588762272   0.111030159238905   1.0000000
B2   B   0.761447946468639   0.238554074727362   0.111033709372562   1.0000000
B2   B   0.761540004523109   0.381317202104033   0.110978452168010   1.0000000
B2   B   0.764564725253302   0.525041236811663   0.111020435591045   1.0000000
B2   B   0.768688608731780   0.672154407068914   0.111003956586778   1.0000000
B2   B   0.766664950352880   0.814076782779511   0.110987243741244   1.0000000
N2   N   0.954268684151382   0.905997130532067   0.110990514552640   1.0000000
N2   N   0.952135613958772   0.047865787959228   0.111001300516809   1.0000000
N2   N   0.950993346978355   0.190168235254275   0.110991601101831   1.0000000
N2   N   0.951157702030390   0.332994605600226   0.110971994592264   1.0000000
N2   N   0.952621632856102   0.475974496809349   0.110980707991130   1.0000000
N2   N   0.954199759557163   0.619142993698961   0.111066354879346   1.0000000
N2   N   0.954791624408514   0.762631401888635   0.111065787676479   1.0000000
N2   N   0.096073046561851   0.903928355356140   0.110995905008936   1.0000000
N2   N   0.094004271385932   0.045732717766624   0.110990514552640   1.0000000
N2   N   0.091708219647600   0.187563296593404   0.110955530305322   1.0000000
N2   N   0.092314865187732   0.331553975883863   0.110991395829357   1.0000000
N2   N   0.094181267100832   0.475224205014948   0.111003027321714   1.0000000
N2   N   0.096283488573280   0.618424282793182   0.111009127924611   1.0000000
N2   N   0.096651222786937   0.761291945586134   0.110994242754695   1.0000000
N2   N   0.238709456331865   0.903350179131058   0.110994242754695   1.0000000
N2   N   0.237370000029375   0.045209777509496   0.111065787676479   1.0000000
N2   N   0.233373970597235   0.185177601082821   0.110989666437406   1.0000000
N2   N   0.230366344065231   0.326700968127208   0.111005374422842   1.0000000
N2   N   0.234822880071014   0.473873760286384   0.111064704630661   1.0000000
N2   N   0.238894157455981   0.617944073841137   0.111036628582677   1.0000000
N2   N   0.239144724243122   0.760856677674881   0.110977687777040   1.0000000
N2   N   0.381577119124817   0.903717913344714   0.111009127924611   1.0000000
N2   N   0.380858408219035   0.045801642360845   0.111066354879346   1.0000000
N2   N   0.379142887114015   0.186901331895420   0.111020929252907   1.0000000
N2   N   0.371835493401374   0.323699445256367   0.110995088636549   1.0000000
N2   N   0.367394925365659   0.465111171494641   0.111054262266617   1.0000000
N2   N   0.382470775469132   0.617530626448861   0.111076145624964   1.0000000
N2   N   0.382057328076858   0.761107244462016   0.111036628582677   1.0000000
N2   N   0.524777196902047   0.905820134817170   0.111003027321714   1.0000000
N2   N   0.524026905107643   0.047379769061913   0.110980707991130   1.0000000
N2   N   0.523420633787376   0.188999100600915   0.110981451074637   1.0000000
N2   N   0.522278476016232   0.330040152095352   0.111019914439811   1.0000000
N2   N   0.534890230422358   0.632606476552338   0.111054262266617   1.0000000
N2   N   0.526127641630612   0.765178521847004   0.111064704630661   1.0000000
N2   N   0.668447426033129   0.907686536730266   0.110991395829357   1.0000000
N2   N   0.667006796316764   0.048843699887618   0.110971994592264   1.0000000
N2   N   0.666450038391901   0.190964334313260   0.110984947496266   1.0000000
N2   N   0.666252498778961   0.333748903138038   0.110942080745344   1.0000000
N2   N   0.669961249821646   0.477722925900771   0.111019914439811   1.0000000
N2   N   0.676301956660632   0.628165908516629   0.110995088636549   1.0000000
N2   N   0.673300433789791   0.769635057852767   0.111005374422842   1.0000000
N2   N   0.812438105324598   0.908293182270412   0.110955530305322   1.0000000
N2   N   0.809833166663731   0.049008054939652   0.110991601101831   1.0000000
N2   N   0.808989344553320   0.191012057364677   0.111043781103710   1.0000000
N2   N   0.809037067604741   0.333551363525094   0.110984947496266   1.0000000
N2   N   0.811002301317081   0.476580768129620   0.110981451074637   1.0000000
N2   N   0.813100070022577   0.620858514803990   0.111020929252907   1.0000000
N2   N   0.814823800835179   0.766627431320776   0.110989666437406   1.0000000


