data_1
_audit_creation_method   'vasp2cif'
_cell_length_a    14.93631414619966
_cell_length_b    14.936314146199727
_cell_length_c    13.341276283792837
_cell_angle_alpha    90.0
_cell_angle_beta    90.0
_cell_angle_gamma    119.99999999999984

_symmetry_space_group_name_H-M    'P 1'
loop_
_atom_site_label
_atom_site_type_symbol
_atom_site_fract_x
_atom_site_fract_y
_atom_site_fract_z
_atom_site_occupancy
O2   O   0.436527558246517   0.384930445789901   0.375000000000000   1.0000000
N2   N   0.111196728688409   0.055607842042581   0.124733208602690   1.0000000
N2   N   0.611249529432053   0.555726411743655   0.123063185669418   1.0000000
N2   N   0.444585887929255   0.055644654708201   0.124763254965301   1.0000000
N2   N   0.944558624374358   0.555616850324000   0.125720379882913   1.0000000
N2   N   0.777891498250518   0.055612415791945   0.125978485283765   1.0000000
N2   N   0.111236975399486   0.722285154366443   0.624045205389094   1.0000000
N2   N   0.444585887929255   0.722274566554336   0.625236745034682   1.0000000
N2   N   0.277863668426264   0.222293453632824   0.625773238195440   1.0000000
N2   N   0.777903830652677   0.722303047940725   0.625125327327917   1.0000000
N2   N   0.611269073852537   0.222296714733032   0.625428024001059   1.0000000
N2   N   0.944548390066398   0.222277670982115   0.624584692793058   1.0000000
N2   N   0.277922498667758   0.722277567106515   0.125279196934277   1.0000000
N2   N   0.111168587692432   0.222250960512867   0.124361659058790   1.0000000
N2   N   0.444536150976677   0.222278860591998   0.124144259912289   1.0000000
N2   N   0.611269073852537   0.722305692452808   0.124571975998925   1.0000000
N2   N   0.944558624374358   0.722275107383653   0.125720379882913   1.0000000
N2   N   0.777914610185035   0.222272740394135   0.125528483377253   1.0000000
N2   N   0.111230270261728   0.888955607601584   0.624561908835355   1.0000000
N2   N   0.444578399551317   0.888955866442262   0.624752741119664   1.0000000
N2   N   0.277863668426264   0.388903548126813   0.625773238195440   1.0000000
N2   N   0.611249529432053   0.388856451021732   0.626936814330603   1.0000000
N2   N   0.777914610185035   0.888975203124305   0.624471516622805   1.0000000
N2   N   0.944562984294907   0.388941110468852   0.624391739762475   1.0000000
N2   N   0.111196728688409   0.388922219979195   0.124733208602693   1.0000000
N2   N   0.277922498667759   0.888978264894588   0.125279196934277   1.0000000
N2   N   0.611240670778975   0.888957274806639   0.125591676889879   1.0000000
N2   N   0.444563908433505   0.388948620883415   0.124792461948126   1.0000000
N2   N   0.944562984294907   0.888955207159348   0.125608260237507   1.0000000
N2   N   0.777903830652677   0.388934116045317   0.124874672672098   1.0000000
N2   N   0.277888812483912   0.555594762643568   0.625516958422867   1.0000000
N2   N   0.111196728688410   0.055607842042581   0.625266791397350   1.0000000
N2   N   0.611249529432053   0.555726411743655   0.626936814330603   1.0000000
N2   N   0.444585887929255   0.055644654708201   0.625236745034682   1.0000000
N2   N   0.944558624374358   0.555616850324000   0.624279620117063   1.0000000
N2   N   0.111230270261728   0.555607995993510   0.125438091164642   1.0000000
N2   N   0.777891498250518   0.055612415791945   0.624021514716232   1.0000000
N2   N   0.277888812483912   0.055627383173712   0.124483041577168   1.0000000
N2   N   0.444536150976677   0.555590623717993   0.124144259912291   1.0000000
N2   N   0.777878877726906   0.555606105530129   0.124576908456366   1.0000000
N2   N   0.611240670778975   0.055616729305667   0.125591676889879   1.0000000
N2   N   0.444536150976677   0.555590623717993   0.625855740087734   1.0000000
N2   N   0.944548390066398   0.055604052417646   0.125415307206914   1.0000000
N2   N   0.277922498667759   0.722277567106515   0.624720803065760   1.0000000
N2   N   0.111168587692432   0.222250960512867   0.625638340941229   1.0000000
N2   N   0.444536150976677   0.222278860591998   0.625855740087734   1.0000000
N2   N   0.611269073852537   0.722305692452808   0.625428024001059   1.0000000
N2   N   0.944558624374358   0.722275107383653   0.624279620117063   1.0000000
N2   N   0.777914610185035   0.222272740394135   0.624471516622737   1.0000000
N2   N   0.111236975399486   0.722285154366443   0.125954794610931   1.0000000
N2   N   0.444585887929255   0.722274566554336   0.124763254965301   1.0000000
N2   N   0.277863668426264   0.222293453632824   0.124226761804501   1.0000000
N2   N   0.777903830652677   0.722303047940725   0.124874672672098   1.0000000
N2   N   0.611269073852537   0.222296714733032   0.124571975998925   1.0000000
N2   N   0.944548390066398   0.222277670982115   0.125415307206914   1.0000000
N2   N   0.111196728688409   0.388922219979195   0.625266791397350   1.0000000
N2   N   0.277922498667759   0.888978264894588   0.624720803065760   1.0000000
N2   N   0.611240670778975   0.888957274806639   0.624408323110086   1.0000000
N2   N   0.444563908433505   0.388948620883415   0.625207538051809   1.0000000
N2   N   0.944562984294906   0.888955207159348   0.624391739762475   1.0000000
N2   N   0.111230270261728   0.888955607601584   0.125438091164642   1.0000000
N2   N   0.777903830652677   0.388934116045317   0.625125327327917   1.0000000
N2   N   0.444578399551317   0.888955866442262   0.125247258880408   1.0000000
N2   N   0.277863668426264   0.388903548126813   0.124226761804505   1.0000000
N2   N   0.277888812483912   0.555594762643568   0.124483041577168   1.0000000
N2   N   0.611249529432053   0.388856451021732   0.123063185669418   1.0000000
N2   N   0.777914610185035   0.888975203124305   0.125528483377253   1.0000000
N2   N   0.944562984294907   0.388941110468852   0.125608260237493   1.0000000
N2   N   0.111230270261728   0.555607995993510   0.624561908835355   1.0000000
N2   N   0.277888812483912   0.055627383173712   0.625516958422867   1.0000000
N2   N   0.777878877726906   0.555606105530129   0.625423091543568   1.0000000
N2   N   0.611240670778975   0.055616729305667   0.624408323110086   1.0000000
N2   N   0.944548390066398   0.055604052417646   0.624584692793058   1.0000000
N2   N   0.052044855212734   0.108873620037883   0.375000000000000   1.0000000
N2   N   0.556599960880327   0.597013564631481   0.375000000000000   1.0000000
N2   N   0.390523239433479   0.117074986117126   0.375000000000000   1.0000000
N2   N   0.896862587126956   0.615097960230160   0.375000000000000   1.0000000
N2   N   0.720817022567247   0.111823325555868   0.375000000000000   1.0000000
N2   N   0.054909422582040   0.777440623106650   0.875000000000000   1.0000000
N2   N   0.388238445407279   0.777441946318808   0.875000000000000   1.0000000
N2   N   0.221609424831985   0.277471379082669   0.875000000000000   1.0000000
N2   N   0.721577816014357   0.777445021314080   0.875000000000000   1.0000000
N2   N   0.554937730174027   0.277458777393140   0.875000000000000   1.0000000
N2   N   0.888274995228172   0.277475969449648   0.875000000000000   1.0000000
N2   N   0.226156936799605   0.779745135066511   0.375000000000000   1.0000000
N2   N   0.052044855212734   0.276504568508151   0.375000000000000   1.0000000
N2   N   0.380775281605108   0.276643451828650   0.375000000000000   1.0000000
N2   N   0.556191567498127   0.772249069039925   0.375000000000000   1.0000000
N2   N   0.891517012204585   0.778179626593025   0.375000000000000   1.0000000
N2   N   0.721600758955914   0.281178542310357   0.375000000000000   1.0000000
N2   N   0.054909623683901   0.944128815907262   0.875000000000000   1.0000000
N2   N   0.388238445407279   0.944129832421776   0.875000000000000   1.0000000
N2   N   0.221579419809059   0.444125141823395   0.875000000000000   1.0000000
N2   N   0.554913088775236   0.444123211054282   0.875000000000000   1.0000000
N2   N   0.721572658992825   0.944130239968817   0.875000000000000   1.0000000
N2   N   0.888259098165227   0.444128832172384   0.875000000000000   1.0000000
N2   N   0.055981215648336   0.444837729292929   0.375000000000000   1.0000000
N2   N   0.225130525545571   0.947172097981997   0.375000000000000   1.0000000
N2   N   0.556215559069475   0.944774446201409   0.375000000000000   1.0000000
N2   N   0.380775281605108   0.437465163109806   0.375000000000000   1.0000000
N2   N   0.887037801140388   0.942265354818606   0.375000000000000   1.0000000
N2   N   0.728433479085055   0.450574388276294   0.375000000000000   1.0000000
N2   N   0.221606231188099   0.610804392019047   0.875000000000000   1.0000000
N2   N   0.054905762652533   0.110773763366790   0.875000000000000   1.0000000
N2   N   0.554937730174027   0.610812286114398   0.875000000000000   1.0000000
N2   N   0.388245182024085   0.110779557738082   0.875000000000000   1.0000000
N2   N   0.888275480012710   0.610804406673032   0.875000000000000   1.0000000
N2   N   0.060325606157546   0.613132894515518   0.375000000000000   1.0000000
N2   N   0.721572658992825   0.110775752357370   0.875000000000000   1.0000000
N2   N   0.220355384850420   0.110650085893477   0.375000000000000   1.0000000
N2   N   0.390523239433479   0.606781586649694   0.375000000000000   1.0000000
N2   N   0.728433479085055   0.611192424142123   0.375000000000000   1.0000000
N2   N   0.556191567498127   0.117275831791494   0.375000000000000   1.0000000
N2   N   0.388245182024085   0.610798957619390   0.875000000000000   1.0000000
N2   N   0.886109417351459   0.109721375342399   0.375000000000000   1.0000000
N2   N   0.221579519142389   0.777456426237743   0.875000000000000   1.0000000
N2   N   0.054905762652533   0.277465332619109   0.875000000000000   1.0000000
N2   N   0.388246816487948   0.277465907819919   0.875000000000000   1.0000000
N2   N   0.554911578223446   0.777465437426273   0.875000000000000   1.0000000
N2   N   0.888259098165227   0.777463599326138   0.875000000000000   1.0000000
N2   N   0.721577816014357   0.277466128033512   0.875000000000000   1.0000000
N2   N   0.060325606157546   0.780526044975374   0.375000000000000   1.0000000
N2   N   0.391443883021483   0.777287733045015   0.375000000000000   1.0000000
N2   N   0.215604661268028   0.274468997300686   0.375000000000000   1.0000000
N2   N   0.721600758955914   0.773755549978946   0.375000000000000   1.0000000
N2   N   0.556599960880327   0.292919729582118   0.375000000000000   1.0000000
N2   N   0.887037801140388   0.278105779655163   0.375000000000000   1.0000000
N2   N   0.054909623683900   0.444114141109979   0.875000000000000   1.0000000
N2   N   0.221606231188099   0.944135172502341   0.875000000000000   1.0000000
N2   N   0.554936759903176   0.944135046618216   0.875000000000000   1.0000000
N2   N   0.388246816487948   0.444114242001353   0.875000000000000   1.0000000
N2   N   0.888274995228172   0.944132359111868   0.875000000000000   1.0000000
N2   N   0.055981215648336   0.944476819688760   0.375000000000000   1.0000000
N2   N   0.721582492502023   0.444114444844789   0.875000000000000   1.0000000
N2   N   0.391443883021483   0.947489483309714   0.375000000000000   1.0000000
N2   N   0.220355384850424   0.443038632290250   0.375000000000000   1.0000000
N2   N   0.225130525545571   0.611291760896963   0.375000000000000   1.0000000
N2   N   0.720817022567247   0.942327030344670   0.375000000000000   1.0000000
N2   N   0.891517012204585   0.446670718944932   0.375000000000000   1.0000000
N2   N   0.054909422582039   0.610802132808771   0.875000000000000   1.0000000
N2   N   0.221579419809059   0.110787611318965   0.875000000000000   1.0000000
N2   N   0.721582492502023   0.610801380990557   0.875000000000000   1.0000000
N2   N   0.554911578223446   0.110779474130420   0.875000000000000   1.0000000
N2   N   0.888247425338212   0.110790379335771   0.875000000000000   1.0000000
B2   B   0.109413207329686   0.054871520640608   0.375000000000000   1.0000000
B2   B   0.617044134980657   0.535040127701261   0.375000000000000   1.0000000
B2   B   0.445594070769938   0.060221390274811   0.375000000000000   1.0000000
B2   B   0.949387358309055   0.557780286754695   0.375000000000000   1.0000000
B2   B   0.775000196761204   0.054166765047234   0.375000000000000   1.0000000
B2   B   0.110344023376609   0.721838678354959   0.875000000000000   1.0000000
B2   B   0.443709831000566   0.721836051215046   0.875000000000000   1.0000000
B2   B   0.277239329780415   0.222032846672843   0.875000000000000   1.0000000
B2   B   0.776996430553653   0.721794023481269   0.875000000000000   1.0000000
B2   B   0.610508976353298   0.222031755277483   0.875000000000000   1.0000000
B2   B   0.943847972351174   0.222011361298527   0.875000000000000   1.0000000
B2   B   0.280685539203841   0.722698616431886   0.375000000000000   1.0000000
B2   B   0.105873089259025   0.219603211296177   0.375000000000000   1.0000000
B2   B   0.446363818874013   0.230902697159168   0.375000000000000   1.0000000
B2   B   0.610041142956791   0.711250096759505   0.375000000000000   1.0000000
B2   B   0.949387358309055   0.724940404887594   0.375000000000000   1.0000000
B2   B   0.775460587554513   0.223720511397974   0.375000000000000   1.0000000
B2   B   0.110457613320036   0.888558203035938   0.875000000000000   1.0000000
B2   B   0.443801411457301   0.888567372395292   0.875000000000000   1.0000000
B2   B   0.277239329780415   0.388539816440893   0.875000000000000   1.0000000
B2   B   0.610504349204056   0.388553832055275   0.875000000000000   1.0000000
B2   B   0.777111988330192   0.888523717261503   0.875000000000000   1.0000000
B2   B   0.943835404389352   0.388535473419516   0.875000000000000   1.0000000
B2   B   0.109413207329683   0.387875020022441   0.375000000000000   1.0000000
B2   B   0.280685539203841   0.891320256105301   0.375000000000000   1.0000000
B2   B   0.610038942521749   0.885390995823720   0.375000000000000   1.0000000
B2   B   0.944645309172780   0.888315188888471   0.375000000000000   1.0000000
B2   B   0.779503516598987   0.392835328573146   0.375000000000000   1.0000000
B2   B   0.277208328115748   0.555331420025188   0.875000000000000   1.0000000
B2   B   0.110362840737755   0.055177112420119   0.875000000000000   1.0000000
B2   B   0.610504349204056   0.555283850482200   0.875000000000000   1.0000000
B2   B   0.443709831000560   0.055207113118851   0.875000000000000   1.0000000
B2   B   0.943819122639846   0.555326954692642   0.875000000000000   1.0000000
B2   B   0.114014483219073   0.556233486344569   0.375000000000000   1.0000000
B2   B   0.777010567758734   0.055171950546027   0.875000000000000   1.0000000
B2   B   0.279438112654944   0.058603745529077   0.375000000000000   1.0000000
B2   B   0.446363818874013   0.548794455048191   0.375000000000000   1.0000000
B2   B   0.786683321253271   0.560008327293350   0.375000000000000   1.0000000
B2   B   0.610038942521749   0.057981280031372   0.375000000000000   1.0000000
B2   B   0.443838277678344   0.555224049384420   0.875000000000000   1.0000000
B2   B   0.941140165132137   0.053216459553631   0.375000000000000   1.0000000
B2   B   0.277194729381235   0.721849412209016   0.875000000000000   1.0000000
B2   B   0.110481128208085   0.221907230770715   0.875000000000000   1.0000000
B2   B   0.443838277678344   0.221947561627258   0.875000000000000   1.0000000
B2   B   0.610508976353300   0.721810554409192   0.875000000000000   1.0000000
B2   B   0.943819122639846   0.721825501280511   0.875000000000000   1.0000000
B2   B   0.777111988330192   0.221921604402085   0.875000000000000   1.0000000
B2   B   0.115195800283595   0.724264566808497   0.375000000000000   1.0000000
B2   B   0.445594070769938   0.718706013828472   0.375000000000000   1.0000000
B2   B   0.272088118659863   0.220976262522782   0.375000000000000   1.0000000
B2   B   0.779503516598987   0.720001521359182   0.375000000000000   1.0000000
B2   B   0.610041142956791   0.232124379530753   0.375000000000000   1.0000000
B2   B   0.941140165132137   0.221257038911826   0.375000000000000   1.0000000
B2   B   0.110362840737755   0.388519061650927   0.875000000000000   1.0000000
B2   B   0.277194729381235   0.888678650505573   0.875000000000000   1.0000000
B2   B   0.610511953123250   0.888649377611250   0.875000000000000   1.0000000
B2   B   0.443776142555026   0.388554737944162   0.875000000000000   1.0000000
B2   B   0.943835404389352   0.888633264303301   0.875000000000000   1.0000000
B2   B   0.114014483219073   0.891114330207900   0.375000000000000   1.0000000
B2   B   0.776996430553653   0.388535740405711   0.875000000000000   1.0000000
B2   B   0.445679928491698   0.889506630912552   0.375000000000000   1.0000000
B2   B   0.272088118659868   0.384445189470432   0.375000000000000   1.0000000
B2   B   0.279438112654944   0.554167700459228   0.375000000000000   1.0000000
B2   B   0.617044134980657   0.415337340612815   0.375000000000000   1.0000000
B2   B   0.775460587554513   0.885073409489870   0.375000000000000   1.0000000
B2   B   0.944645309172780   0.389663453617602   0.375000000000000   1.0000000
B2   B   0.110457613320035   0.555232743617353   0.875000000000000   1.0000000
B2   B   0.277208328115748   0.055210241423896   0.875000000000000   1.0000000
B2   B   0.777084777767765   0.555209055550569   0.875000000000000   1.0000000
B2   B   0.610511953123250   0.055195908845359   0.875000000000000   1.0000000
B2   B   0.943847972351174   0.055169944385951   0.875000000000000   1.0000000
B2   B   0.055618817036911   0.111095670094843   0.124852974563519   1.0000000
B2   B   0.555842740683229   0.611050445432222   0.124426629338804   1.0000000
B2   B   0.389074702755620   0.111296426935336   0.124565287640455   1.0000000
B2   B   0.888826868497286   0.611080100915339   0.125672635362996   1.0000000
B2   B   0.722314201879410   0.111151555116822   0.125847994605553   1.0000000
B2   B   0.055548738919287   0.777723177647605   0.624092520361398   1.0000000
B2   B   0.389046501205787   0.777755597456953   0.624829847245454   1.0000000
B2   B   0.222452772989361   0.277893053161383   0.625742057481297   1.0000000
B2   B   0.722280857538045   0.777656433214159   0.624775918888067   1.0000000
B2   B   0.555842740683229   0.278125628584385   0.625573370661271   1.0000000
B2   B   0.889021520781450   0.277873831337420   0.624349590023013   1.0000000
B2   B   0.222345746907947   0.777839540120570   0.125643099962513   1.0000000
B2   B   0.055618817036911   0.277856480275417   0.124852974563519   1.0000000
B2   B   0.389167439514770   0.278081342524718   0.124743898125011   1.0000000
B2   B   0.555753091387995   0.777762341843276   0.125147727833087   1.0000000
B2   B   0.888876483953558   0.777730831339186   0.125673473154786   1.0000000
B2   B   0.722280857538045   0.277957757657325   0.125224081112018   1.0000000
B2   B   0.055600753778975   0.944508659077348   0.624640096412444   1.0000000
B2   B   0.389046501205787   0.944624237082192   0.624829847245454   1.0000000
B2   B   0.222390023238806   0.444478679373346   0.625531172025597   1.0000000
B2   B   0.555881744527915   0.444607538930621   0.624147423720644   1.0000000
B2   B   0.722314201879410   0.944495980095894   0.624152005394392   1.0000000
B2   B   0.888876483953558   0.444478985947665   0.624326526845234   1.0000000
B2   B   0.055600753778975   0.444425428034852   0.125359903587531   1.0000000
B2   B   0.222428009461331   0.944590593499060   0.125121979199581   1.0000000
B2   B   0.555783710217250   0.944558521775329   0.125603614184859   1.0000000
B2   B   0.389167439514770   0.444419430323322   0.124743898125011   1.0000000
B2   B   0.889021520781450   0.944481022777316   0.125650409977003   1.0000000
B2   B   0.722113204934581   0.444416375686502   0.124886369060708   1.0000000
B2   B   0.222428009461331   0.611170749295548   0.624878020800405   1.0000000
B2   B   0.055618817036911   0.111095670094843   0.625147025436433   1.0000000
B2   B   0.555842740683229   0.611050445432222   0.625573370661271   1.0000000
B2   B   0.389074702755620   0.111296426935336   0.625434712359551   1.0000000
B2   B   0.888826868497250   0.611080100915339   0.624327364637010   1.0000000
B2   B   0.055548738919287   0.611158894605031   0.125907479638582   1.0000000
B2   B   0.722314201879410   0.111151555116822   0.624152005394392   1.0000000
B2   B   0.222390023238806   0.111244677198799   0.124468827974415   1.0000000
B2   B   0.389074702755620   0.611111609153649   0.124565287640455   1.0000000
B2   B   0.722113204934581   0.611030162581347   0.124886369060708   1.0000000
B2   B   0.555753091387995   0.111324082878065   0.125147727833087   1.0000000
B2   B   0.389074702755620   0.611111609153649   0.625434712359551   1.0000000
B2   B   0.888990571389700   0.111161952361528   0.125699432025535   1.0000000
B2   B   0.222345746907947   0.777839540120570   0.624356900037502   1.0000000
B2   B   0.055618817036911   0.277856480275417   0.625147025436433   1.0000000
B2   B   0.389167439514770   0.278081342524718   0.625256101875016   1.0000000
B2   B   0.555753091387995   0.777762341843276   0.624852272166908   1.0000000
B2   B   0.888876483953558   0.777730831339186   0.624326526845234   1.0000000
B2   B   0.722280857538045   0.277957757657325   0.624775918888067   1.0000000
B2   B   0.055548738919287   0.777723177647605   0.125907479638582   1.0000000
B2   B   0.389046501205787   0.777755597456953   0.125170152754516   1.0000000
B2   B   0.222452772989361   0.277893053161383   0.124257942518662   1.0000000
B2   B   0.722280857538045   0.777656433214159   0.125224081112018   1.0000000
B2   B   0.555842740683229   0.278125628584385   0.124426629338804   1.0000000
B2   B   0.889021520781450   0.277873831337420   0.125650409977003   1.0000000
B2   B   0.055600753778974   0.444425428034852   0.624640096412444   1.0000000
B2   B   0.222428009461331   0.944590593499060   0.624878020800405   1.0000000
B2   B   0.555783710217250   0.944558521775329   0.624396385815105   1.0000000
B2   B   0.389167439514770   0.444419430323322   0.625256101875016   1.0000000
B2   B   0.889021520781450   0.944481022777316   0.624349590023013   1.0000000
B2   B   0.055600753778975   0.944508659077348   0.125359903587531   1.0000000
B2   B   0.722113204934581   0.444416375686502   0.625113630939243   1.0000000
B2   B   0.389046501205787   0.944624237082192   0.125170152754516   1.0000000
B2   B   0.222390023238806   0.444478679373346   0.124468827974415   1.0000000
B2   B   0.222428009461331   0.611170749295548   0.125121979199581   1.0000000
B2   B   0.555881744527915   0.444607538930621   0.125852576279337   1.0000000
B2   B   0.722314201879410   0.944495980095894   0.125847994605553   1.0000000
B2   B   0.888876483953558   0.444478985947666   0.125673473154786   1.0000000
B2   B   0.055548738919287   0.611158894605031   0.624092520361398   1.0000000
B2   B   0.222390023238806   0.111244677198803   0.625531172025597   1.0000000
B2   B   0.722113204934581   0.611030162581347   0.625113630939243   1.0000000
B2   B   0.555753091387995   0.111324082878065   0.624852272166908   1.0000000
B2   B   0.888990571389700   0.111161952361528   0.624300567974457   1.0000000


