data_1
_audit_creation_method   'vasp2cif'
_cell_length_a    14.93631414619966
_cell_length_b    14.936314146199727
_cell_length_c    13.341276283792837
_cell_angle_alpha    90.0
_cell_angle_beta    90.0
_cell_angle_gamma    119.99999999999984

_symmetry_space_group_name_H-M    'P 1'
loop_
_atom_site_label
_atom_site_type_symbol
_atom_site_fract_x
_atom_site_fract_y
_atom_site_fract_z
_atom_site_occupancy
Al2   Al   0.444444444444443   0.388888888888886   0.375000000000000   1.0000000
N2   N   0.111095397847525   0.055540084289684   0.124780781871023   1.0000000
N2   N   0.611133086821171   0.555581801203613   0.125233037210097   1.0000000
N2   N   0.444444686442160   0.055540084289684   0.124780781871023   1.0000000
N2   N   0.944449729555085   0.555556428438170   0.125059716693941   1.0000000
N2   N   0.777777777777779   0.055555555555557   0.124790353193861   1.0000000
N2   N   0.111111111111114   0.722222222222221   0.624916424771713   1.0000000
N2   N   0.444444686442160   0.722237935485903   0.625219218128986   1.0000000
N2   N   0.277751532129703   0.222200246512123   0.624766962789866   1.0000000
N2   N   0.777793249043666   0.722237935485903   0.625219218128986   1.0000000
N2   N   0.611118215460476   0.222215117872882   0.625326763465553   1.0000000
N2   N   0.944439951022524   0.222220372455128   0.625174489648790   1.0000000
N2   N   0.277776904895139   0.722226634450225   0.125059716693941   1.0000000
N2   N   0.111096902412403   0.222215117872882   0.124673236534470   1.0000000
N2   N   0.444448714382426   0.222200246512123   0.125233037210097   1.0000000
N2   N   0.611118215460476   0.722236430920907   0.124673236534470   1.0000000
N2   N   0.944449729555085   0.722226634450225   0.125059716693941   1.0000000
N2   N   0.777780421432605   0.222220372455128   0.124825510351297   1.0000000
N2   N   0.111106698883077   0.888883603778243   0.624940283306066   1.0000000
N2   N   0.444446287281314   0.888889810307319   0.625008453314230   1.0000000
N2   N   0.277751532129703   0.388884618950903   0.624766962789866   1.0000000
N2   N   0.611133086821171   0.388884618950903   0.624766962789866   1.0000000
N2   N   0.777780421432605   0.888893382310805   0.625174489648790   1.0000000
N2   N   0.944443523026009   0.388887046052014   0.625008453314230   1.0000000
N2   N   0.111095397847522   0.388888646891169   0.124780781871023   1.0000000
N2   N   0.277776904895139   0.888883603778243   0.125059716693941   1.0000000
N2   N   0.611112960878183   0.888893382310805   0.124825510351297   1.0000000
N2   N   0.444444444444443   0.388888888888886   0.129799853778155   1.0000000
N2   N   0.944443523026009   0.888889810307319   0.124991546685745   1.0000000
N2   N   0.777793249043666   0.388888646891169   0.124780781871023   1.0000000
N2   N   0.277769762201606   0.555563571131743   0.625056570607704   1.0000000
N2   N   0.111095397847522   0.055540084289684   0.625219218128986   1.0000000
N2   N   0.611133086821171   0.555581801203613   0.624766962789866   1.0000000
N2   N   0.444444686442160   0.055540084289684   0.625219218128986   1.0000000
N2   N   0.944449729555085   0.555556428438170   0.624940283306066   1.0000000
N2   N   0.111106698883077   0.555556428438170   0.125059716693941   1.0000000
N2   N   0.777777777777779   0.055555555555557   0.625209646806100   1.0000000
N2   N   0.277769762201606   0.055539524403198   0.124943429392295   1.0000000
N2   N   0.444448714382426   0.555581801203613   0.125233037210097   1.0000000
N2   N   0.777793808930124   0.555563571131743   0.124943429392295   1.0000000
N2   N   0.611112960878183   0.055552911900710   0.124825510351297   1.0000000
N2   N   0.444448714382426   0.555581801203613   0.624766962789866   1.0000000
N2   N   0.944439951022524   0.055552911900710   0.124825510351297   1.0000000
N2   N   0.277776904895139   0.722226634450225   0.624940283306066   1.0000000
N2   N   0.111096902412403   0.222215117872882   0.625326763465553   1.0000000
N2   N   0.444448714382426   0.222200246512123   0.624766962789866   1.0000000
N2   N   0.611118215460476   0.722236430920907   0.625326763465553   1.0000000
N2   N   0.944449729555085   0.722226634450225   0.624940283306066   1.0000000
N2   N   0.777780421432605   0.222220372455128   0.625174489648790   1.0000000
N2   N   0.111111111111114   0.722222222222221   0.125083575228311   1.0000000
N2   N   0.444444686442160   0.722237935485903   0.124780781871023   1.0000000
N2   N   0.277751532129703   0.222200246512123   0.125233037210097   1.0000000
N2   N   0.777793249043666   0.722237935485903   0.124780781871023   1.0000000
N2   N   0.611118215460476   0.222215117872882   0.124673236534470   1.0000000
N2   N   0.944439951022524   0.222220372455128   0.124825510351297   1.0000000
N2   N   0.111095397847522   0.388888646891169   0.625219218128986   1.0000000
N2   N   0.277776904895139   0.888883603778243   0.624940283306066   1.0000000
N2   N   0.611112960878183   0.888893382310805   0.625174489648790   1.0000000
N2   N   0.444444444444443   0.388888888888886   0.620200146221791   1.0000000
N2   N   0.944443523026009   0.888889810307319   0.625008453314230   1.0000000
N2   N   0.111106698883077   0.888883603778243   0.125059716693941   1.0000000
N2   N   0.777793249043666   0.388888646891169   0.625219218128986   1.0000000
N2   N   0.444446287281314   0.888889810307319   0.124991546685745   1.0000000
N2   N   0.277751532129703   0.388884618950903   0.125233037210097   1.0000000
N2   N   0.277769762201606   0.555563571131743   0.124943429392295   1.0000000
N2   N   0.611133086821171   0.388884618950903   0.125233037210097   1.0000000
N2   N   0.777780421432605   0.888893382310805   0.124825510351297   1.0000000
N2   N   0.944443523026009   0.388887046052014   0.124991546685743   1.0000000
N2   N   0.111106698883077   0.555556428438170   0.624940283306066   1.0000000
N2   N   0.277769762201606   0.055539524403198   0.625056570607704   1.0000000
N2   N   0.777793808930124   0.555563571131743   0.625056570607704   1.0000000
N2   N   0.611112960878183   0.055552911900710   0.625174489648790   1.0000000
N2   N   0.944439951022524   0.055552911900710   0.625174489648790   1.0000000
N2   N   0.054566153653366   0.110440292203404   0.375000000000000   1.0000000
N2   N   0.556107659114579   0.612215318229284   0.375000000000000   1.0000000
N2   N   0.387883994894975   0.105525285325554   0.375000000000000   1.0000000
N2   N   0.890810655740150   0.612071994536696   0.375000000000000   1.0000000
N2   N   0.722395380194418   0.110937953138949   0.375000000000000   1.0000000
N2   N   0.055554933391685   0.777778399941680   0.875000000000000   1.0000000
N2   N   0.388889430758501   0.777778283884417   0.875000000000000   1.0000000
N2   N   0.222225298156638   0.277779315744996   0.875000000000000   1.0000000
N2   N   0.722222810492985   0.777778659188847   0.875000000000000   1.0000000
N2   N   0.555554017588355   0.277779315744996   0.875000000000000   1.0000000
N2   N   0.888889786104256   0.277779572208541   0.875000000000000   1.0000000
N2   N   0.221855163053622   0.777594248193488   0.375000000000000   1.0000000
N2   N   0.054566153653366   0.277459194783287   0.375000000000000   1.0000000
N2   N   0.379683001621451   0.259366003242908   0.375000000000000   1.0000000
N2   N   0.555874138549978   0.778767179679962   0.375000000000000   1.0000000
N2   N   0.890451055348046   0.779038966577523   0.375000000000000   1.0000000
N2   N   0.722893041129945   0.277459194783287   0.375000000000000   1.0000000
N2   N   0.055555049448927   0.944444480207403   0.875000000000000   1.0000000
N2   N   0.388889430758501   0.944444480207403   0.875000000000000   1.0000000
N2   N   0.222224869826473   0.444441119132466   0.875000000000000   1.0000000
N2   N   0.555539194371186   0.444436263852256   0.875000000000000   1.0000000
N2   N   0.722222154941859   0.944444309883801   0.875000000000000   1.0000000
N2   N   0.888888853125926   0.444443902574827   0.875000000000000   1.0000000
N2   N   0.054294366755807   0.444745422103768   0.375000000000000   1.0000000
N2   N   0.221261338796613   0.942522677593179   0.375000000000000   1.0000000
N2   N   0.555806846824806   0.944570090079079   0.375000000000000   1.0000000
N2   N   0.379683001621451   0.453650331711878   0.375000000000000   1.0000000
N2   N   0.888763243254249   0.944570090079079   0.375000000000000   1.0000000
N2   N   0.727808048007833   0.445449338438354   0.375000000000000   1.0000000
N2   N   0.222223749556888   0.611109583776409   0.875000000000000   1.0000000
N2   N   0.055554674144552   0.111110522840374   0.875000000000000   1.0000000
N2   N   0.555554017588355   0.611108035176680   0.875000000000000   1.0000000
N2   N   0.388892214200862   0.111117084027362   0.875000000000000   1.0000000
N2   N   0.888885834219470   0.611109583776409   0.875000000000000   1.0000000
N2   N   0.055739085139862   0.611478170279715   0.375000000000000   1.0000000
N2   N   0.722222154941859   0.111111178391438   0.875000000000000   1.0000000
N2   N   0.217641290430593   0.105525285325554   0.375000000000000   1.0000000
N2   N   0.387883994894975   0.615692042902708   0.375000000000000   1.0000000
N2   N   0.727808048007833   0.615692042902708   0.375000000000000   1.0000000
N2   N   0.555874138549978   0.110440292203404   0.375000000000000   1.0000000
N2   N   0.388892214200862   0.611108463506858   0.875000000000000   1.0000000
N2   N   0.888542572944548   0.110937953138949   0.375000000000000   1.0000000
N2   N   0.222223466549956   0.777778399941680   0.875000000000000   1.0000000
N2   N   0.055554674144551   0.277777484637471   0.875000000000000   1.0000000
N2   N   0.388897069481073   0.277794138962146   0.875000000000000   1.0000000
N2   N   0.555555848695888   0.777778659188847   0.875000000000000   1.0000000
N2   N   0.888888853125926   0.777778283884417   0.875000000000000   1.0000000
N2   N   0.722222810492985   0.277777484637471   0.875000000000000   1.0000000
N2   N   0.055739085139862   0.777594248193488   0.375000000000000   1.0000000
N2   N   0.388587911229560   0.779038966577523   0.375000000000000   1.0000000
N2   N   0.221118015104063   0.277225674218693   0.375000000000000   1.0000000
N2   N   0.722893041129945   0.778767179679962   0.375000000000000   1.0000000
N2   N   0.556107659114579   0.277225674218693   0.375000000000000   1.0000000
N2   N   0.888763243254249   0.277526486508471   0.375000000000000   1.0000000
N2   N   0.055555049448927   0.444443902574827   0.875000000000000   1.0000000
N2   N   0.222223749556888   0.944447499113859   0.875000000000000   1.0000000
N2   N   0.555553761124844   0.944443547229073   0.875000000000000   1.0000000
N2   N   0.388897069481073   0.444436263852256   0.875000000000000   1.0000000
N2   N   0.888889786104258   0.944443547229073   0.875000000000000   1.0000000
N2   N   0.054294366755807   0.942882277985282   0.375000000000000   1.0000000
N2   N   0.722216249305957   0.444441119132466   0.875000000000000   1.0000000
N2   N   0.388587911229560   0.942882277985352   0.375000000000000   1.0000000
N2   N   0.217641290430590   0.445449338438354   0.375000000000000   1.0000000
N2   N   0.221261338796613   0.612071994536696   0.375000000000000   1.0000000
N2   N   0.573967330090427   0.453650331711878   0.375000000000000   1.0000000
N2   N   0.722395380194418   0.944790760388780   0.375000000000000   1.0000000
N2   N   0.890451055348046   0.444745422103768   0.375000000000000   1.0000000
N2   N   0.055554933391685   0.611109866783439   0.875000000000000   1.0000000
N2   N   0.222224869826473   0.111117084027362   0.875000000000000   1.0000000
N2   N   0.722216249305957   0.611108463506858   0.875000000000000   1.0000000
N2   N   0.555555848695888   0.111110522840374   0.875000000000000   1.0000000
N2   N   0.888889023449527   0.111111178391438   0.875000000000000   1.0000000
B2   B   0.108139357120875   0.052815884198977   0.375000000000000   1.0000000
B2   B   0.618172273485478   0.561334080571724   0.375000000000000   1.0000000
B2   B   0.444676527078091   0.052815884198977   0.375000000000000   1.0000000
B2   B   0.945287086612672   0.555806385985360   0.375000000000000   1.0000000
B2   B   0.777777777777779   0.055555555555557   0.375000000000000   1.0000000
B2   B   0.111111111111114   0.722222222222221   0.875000000000000   1.0000000
B2   B   0.444451802132288   0.722236656934825   0.875000000000000   1.0000000
B2   B   0.277754900957207   0.222208306943966   0.875000000000000   1.0000000
B2   B   0.777784854802620   0.722236656934825   0.875000000000000   1.0000000
B2   B   0.611122715008942   0.222210618324436   0.875000000000000   1.0000000
B2   B   0.944435325948048   0.222216530288315   0.875000000000000   1.0000000
B2   B   0.277526947347967   0.722814033960636   0.375000000000000   1.0000000
B2   B   0.110156615976499   0.221744974654910   0.375000000000000   1.0000000
B2   B   0.443161807086279   0.215161059847861   0.375000000000000   1.0000000
B2   B   0.611588358678458   0.723176717356900   0.375000000000000   1.0000000
B2   B   0.945287086612672   0.722814033960636   0.375000000000000   1.0000000
B2   B   0.777909317511929   0.221812689373168   0.375000000000000   1.0000000
B2   B   0.111106932007841   0.888888263318259   0.875000000000000   1.0000000
B2   B   0.444450939767053   0.888892136550185   0.875000000000000   1.0000000
B2   B   0.277754900957207   0.388879927346560   0.875000000000000   1.0000000
B2   B   0.611125026389330   0.388879927346560   0.875000000000000   1.0000000
B2   B   0.777781204340333   0.888898007385281   0.875000000000000   1.0000000
B2   B   0.944441196783144   0.388882393566276   0.875000000000000   1.0000000
B2   B   0.108139357120875   0.388656806255237   0.375000000000000   1.0000000
B2   B   0.277526947347967   0.888046246720657   0.375000000000000   1.0000000
B2   B   0.611520643960211   0.889429961472172   0.375000000000000   1.0000000
B2   B   0.944283269432403   0.889050063900925   0.375000000000000   1.0000000
B2   B   0.780517449134422   0.388656806255237   0.375000000000000   1.0000000
B2   B   0.277774967526366   0.555558365806954   0.875000000000000   1.0000000
B2   B   0.111096676398441   0.055548478530715   0.875000000000000   1.0000000
B2   B   0.611125026389330   0.555578432376204   0.875000000000000   1.0000000
B2   B   0.444451802132296   0.055548478530715   0.875000000000000   1.0000000
B2   B   0.944445070015070   0.555552002022816   0.875000000000000   1.0000000
B2   B   0.110519299372731   0.555806385985360   0.375000000000000   1.0000000
B2   B   0.777777777777779   0.055555555555557   0.875000000000000   1.0000000
B2   B   0.276361667328857   0.052723334657779   0.375000000000000   1.0000000
B2   B   0.443161807086279   0.561334080571724   0.375000000000000   1.0000000
B2   B   0.780609998675622   0.556971666004477   0.375000000000000   1.0000000
B2   B   0.611520643960211   0.055424015821363   0.375000000000000   1.0000000
B2   B   0.444453405986769   0.555578432376204   0.875000000000000   1.0000000
B2   B   0.943903371861156   0.055424015821363   0.375000000000000   1.0000000
B2   B   0.277781331310509   0.722226401325526   0.875000000000000   1.0000000
B2   B   0.111087903315542   0.222210618324436   0.875000000000000   1.0000000
B2   B   0.444453405986769   0.222208306943966   0.875000000000000   1.0000000
B2   B   0.611122715008942   0.722245430017758   0.875000000000000   1.0000000
B2   B   0.944445070015070   0.722226401325526   0.875000000000000   1.0000000
B2   B   0.777781204340333   0.222216530288315   0.875000000000000   1.0000000
B2   B   0.111111111111114   0.722222222222221   0.375000000000000   1.0000000
B2   B   0.444676527078091   0.725193976212538   0.375000000000000   1.0000000
B2   B   0.271999252761575   0.215161059847861   0.375000000000000   1.0000000
B2   B   0.780517449134422   0.725193976212538   0.375000000000000   1.0000000
B2   B   0.611588358678458   0.221744974654910   0.375000000000000   1.0000000
B2   B   0.943903371861156   0.221812689373168   0.375000000000000   1.0000000
B2   B   0.111096676398441   0.388881531201033   0.875000000000000   1.0000000
B2   B   0.277781331310509   0.888888263318259   0.875000000000000   1.0000000
B2   B   0.611116803045047   0.888898007385281   0.875000000000000   1.0000000
B2   B   0.444444444444443   0.388888888888886   0.875000000000000   1.0000000
B2   B   0.944441196783144   0.888892136550185   0.875000000000000   1.0000000
B2   B   0.110519299372731   0.888046246720657   0.375000000000000   1.0000000
B2   B   0.777784854802620   0.388881531201033   0.875000000000000   1.0000000
B2   B   0.444766794468580   0.889050063900925   0.375000000000000   1.0000000
B2   B   0.271999252761575   0.390171526247049   0.375000000000000   1.0000000
B2   B   0.276361667328857   0.556971666004477   0.375000000000000   1.0000000
B2   B   0.618172273485478   0.390171526247049   0.375000000000000   1.0000000
B2   B   0.777909317511929   0.889429961472172   0.375000000000000   1.0000000
B2   B   0.944283269432403   0.388566538864748   0.375000000000000   1.0000000
B2   B   0.111106932007841   0.555552002022816   0.875000000000000   1.0000000
B2   B   0.277774967526366   0.055549935052761   0.875000000000000   1.0000000
B2   B   0.777783398280604   0.555558365806954   0.875000000000000   1.0000000
B2   B   0.611116803045047   0.055552128993042   0.875000000000000   1.0000000
B2   B   0.944435325948048   0.055552128993042   0.875000000000000   1.0000000
B2   B   0.055526691600936   0.111089852116648   0.124797356809199   1.0000000
B2   B   0.555595779719298   0.611191559438646   0.125094192736543   1.0000000
B2   B   0.388859843694809   0.111021543778412   0.124952059591904   1.0000000
B2   B   0.888919818193176   0.611126575763213   0.125035398685935   1.0000000
B2   B   0.722226309383153   0.111107023950244   0.124846988963637   1.0000000
B2   B   0.055557369280581   0.777775964052795   0.624909938814721   1.0000000
B2   B   0.388888178677285   0.777794338888655   0.625016172556160   1.0000000
B2   B   0.222141773894753   0.277737553614013   0.624905807263460   1.0000000
B2   B   0.722243481216655   0.777806641732407   0.625202643190836   1.0000000
B2   B   0.555595779719296   0.277737553614013   0.624905807263460   1.0000000
B2   B   0.888885776074185   0.277771552148383   0.625068860477089   1.0000000
B2   B   0.222218594772166   0.777775964052795   0.125090061185307   1.0000000
B2   B   0.055526691600936   0.277770172817617   0.124797356809199   1.0000000
B2   B   0.388741196234759   0.277482392469557   0.126635762162882   1.0000000
B2   B   0.555563160515669   0.777806641732407   0.124797356809199   1.0000000
B2   B   0.888906160211350   0.777794338888655   0.124983827443823   1.0000000
B2   B   0.722243481216655   0.277770172817617   0.124797356809199   1.0000000
B2   B   0.055538994444718   0.944427173121978   0.625016172556160   1.0000000
B2   B   0.388888178677285   0.944427173121978   0.625016172556160   1.0000000
B2   B   0.222161700083589   0.444473489638519   0.625047940408097   1.0000000
B2   B   0.555850940863811   0.444592137098570   0.623364237837101   1.0000000
B2   B   0.722226309383153   0.944452618766152   0.625153011036347   1.0000000
B2   B   0.888906160211350   0.444445154656044   0.625016172556160   1.0000000
B2   B   0.055538994444718   0.444445154656044   0.124983827443823   1.0000000
B2   B   0.222206757570053   0.944413515140153   0.125035398685935   1.0000000
B2   B   0.555561781184959   0.944447557259144   0.124931139522900   1.0000000
B2   B   0.388741196234759   0.444592137098570   0.126635762162882   1.0000000
B2   B   0.888885776074185   0.944447557259144   0.124931139522900   1.0000000
B2   B   0.722311789554966   0.444473489638519   0.124952059591904   1.0000000
B2   B   0.222206757570053   0.611126575763213   0.624964601314026   1.0000000
B2   B   0.055526691600936   0.111089852116648   0.625202643190836   1.0000000
B2   B   0.555595779719298   0.611191559438646   0.624905807263460   1.0000000
B2   B   0.388859843694809   0.111021543778412   0.625047940408097   1.0000000
B2   B   0.888919818193176   0.611126575763213   0.624964601314026   1.0000000
B2   B   0.055557369280581   0.611114738561187   0.125090061185307   1.0000000
B2   B   0.722226309383153   0.111107023950244   0.625153011036347   1.0000000
B2   B   0.222161700083589   0.111021543778412   0.124952059591904   1.0000000
B2   B   0.388859843694809   0.611171633249767   0.124952059591904   1.0000000
B2   B   0.722311789554966   0.611171633249767   0.124952059591904   1.0000000
B2   B   0.555563160515669   0.111089852116648   0.124797356809199   1.0000000
B2   B   0.388859843694809   0.611171633249767   0.625047940408097   1.0000000
B2   B   0.888880714567176   0.111107023950244   0.124846988963637   1.0000000
B2   B   0.222218594772166   0.777775964052795   0.624909938814721   1.0000000
B2   B   0.055526691600936   0.277770172817617   0.625202643190836   1.0000000
B2   B   0.388741196234759   0.277482392469557   0.623364237837101   1.0000000
B2   B   0.555563160515669   0.777806641732407   0.625202643190836   1.0000000
B2   B   0.888906160211350   0.777794338888655   0.625016172556160   1.0000000
B2   B   0.722243481216655   0.277770172817617   0.625202643190836   1.0000000
B2   B   0.055557369280581   0.777775964052795   0.125090061185307   1.0000000
B2   B   0.388888178677285   0.777794338888655   0.124983827443823   1.0000000
B2   B   0.222141773894753   0.277737553614013   0.125094192736543   1.0000000
B2   B   0.722243481216655   0.777806641732407   0.124797356809199   1.0000000
B2   B   0.555595779719298   0.277737553614013   0.125094192736543   1.0000000
B2   B   0.888885776074185   0.277771552148383   0.124931139522900   1.0000000
B2   B   0.055538994444718   0.444445154656044   0.625016172556160   1.0000000
B2   B   0.222206757570053   0.944413515140153   0.624964601314026   1.0000000
B2   B   0.555561781184959   0.944447557259144   0.625068860477089   1.0000000
B2   B   0.388741196234759   0.444592137098570   0.623364237837101   1.0000000
B2   B   0.888885776074185   0.944447557259144   0.625068860477089   1.0000000
B2   B   0.055538994444718   0.944427173121978   0.124983827443823   1.0000000
B2   B   0.722311789554966   0.444473489638519   0.625047940408097   1.0000000
B2   B   0.388888178677285   0.944427173121978   0.124983827443823   1.0000000
B2   B   0.222161700083576   0.444473489638519   0.124952059591904   1.0000000
B2   B   0.222206757570053   0.611126575763213   0.125035398685935   1.0000000
B2   B   0.555850940863811   0.444592137098570   0.126635762162882   1.0000000
B2   B   0.722226309383153   0.944452618766152   0.124846988963637   1.0000000
B2   B   0.888906160211350   0.444445154656044   0.124983827443823   1.0000000
B2   B   0.055557369280583   0.611114738561187   0.624909938814721   1.0000000
B2   B   0.222161700083589   0.111021543778412   0.625047940408097   1.0000000
B2   B   0.722311789554966   0.611171633249767   0.625047940408097   1.0000000
B2   B   0.555563160515669   0.111089852116648   0.625202643190836   1.0000000
B2   B   0.888880714567176   0.111107023950244   0.625153011036347   1.0000000


