data_1
_audit_creation_method   'vasp2cif'
_cell_length_a    14.93631414619966
_cell_length_b    14.936314146199727
_cell_length_c    13.341276283792837
_cell_angle_alpha    90.0
_cell_angle_beta    90.0
_cell_angle_gamma    119.99999999999984

_symmetry_space_group_name_H-M    'P 1'
loop_
_atom_site_label
_atom_site_type_symbol
_atom_site_fract_x
_atom_site_fract_y
_atom_site_fract_z
_atom_site_occupancy
C2   C   0.609424452440914   0.387045047631408   0.375000000000000   1.0000000
C2   C   0.444287261857165   0.387045047631408   0.375000000000000   1.0000000
C2   C   0.553202874830054   0.439739082993437   0.375000000000000   1.0000000
N2   N   0.111119372467606   0.055550472871975   0.125034097347032   1.0000000
N2   N   0.611109505693680   0.555552344720689   0.124934699057975   1.0000000
N2   N   0.444437941193665   0.055552686305881   0.125087704222435   1.0000000
N2   N   0.944447008948924   0.555553374905019   0.125042122715885   1.0000000
N2   N   0.777773423084059   0.055555674104036   0.124994396872499   1.0000000
N2   N   0.111110657846241   0.722214328927699   0.625014230318917   1.0000000
N2   N   0.444431823612265   0.722207969391615   0.624986936404511   1.0000000
N2   N   0.277793350456559   0.222234491975896   0.624738485142171   1.0000000
N2   N   0.777770831794572   0.722205808607843   0.624956248183401   1.0000000
N2   N   0.611107808186009   0.222234491975896   0.624738485142171   1.0000000
N2   N   0.944447671812870   0.222228676959076   0.625002708799982   1.0000000
N2   N   0.277770337748130   0.722214328927699   0.124985769681083   1.0000000
N2   N   0.111119242710017   0.222227842189218   0.125051696184105   1.0000000
N2   N   0.444452066913333   0.222237467160002   0.125389589276837   1.0000000
N2   N   0.611101643479943   0.722205808607843   0.125043751816599   1.0000000
N2   N   0.944442812446015   0.722207969391615   0.125013063595489   1.0000000
N2   N   0.777775266145872   0.222227842189218   0.125051696184105   1.0000000
N2   N   0.111111220572623   0.888880065744338   0.625008976633306   1.0000000
N2   N   0.444435511838386   0.888880065744338   0.625008976633306   1.0000000
N2   N   0.277785718073057   0.388891996519797   0.624772366499119   1.0000000
N2   N   0.611122104101246   0.388883583221375   0.625033534117884   1.0000000
N2   N   0.777773327565797   0.888879988464924   0.625015130404187   1.0000000
N2   N   0.944450766116771   0.388900441783643   0.624975175025712   1.0000000
N2   N   0.111116342333544   0.388900441783643   0.125024824974288   1.0000000
N2   N   0.277772040065900   0.888877413465128   0.124998814375231   1.0000000
N2   N   0.611098766580884   0.888879078028293   0.124990078150813   1.0000000
N2   N   0.444428145786800   0.388883583221375   0.124966465882116   1.0000000
N2   N   0.944446978114080   0.888879078028293   0.124990078150813   1.0000000
N2   N   0.777772945113411   0.388891996519797   0.125227633500881   1.0000000
N2   N   0.277773032622760   0.555553374905019   0.624957877284115   1.0000000
N2   N   0.111119372467606   0.055550472871975   0.624965902652968   1.0000000
N2   N   0.611109505693680   0.555552344720689   0.625065300942025   1.0000000
N2   N   0.444437941193665   0.055552686305881   0.624912295777565   1.0000000
N2   N   0.944447008948924   0.555553374905019   0.624957877284115   1.0000000
N2   N   0.111110289868653   0.555553913070634   0.124987526806741   1.0000000
N2   N   0.777773423084059   0.055555674104036   0.625005603127501   1.0000000
N2   N   0.277781411778880   0.055552686305881   0.125087704222435   1.0000000
N2   N   0.444434973678985   0.555541493967693   0.125197531146876   1.0000000
N2   N   0.777773186955372   0.555541493967693   0.125197531146876   1.0000000
N2   N   0.611097767071041   0.055550472871975   0.125034097347032   1.0000000
N2   N   0.444434973678985   0.555541493967693   0.624802468853124   1.0000000
N2   N   0.944448917686641   0.055555674104036   0.124994396872499   1.0000000
N2   N   0.277770337748130   0.722214328927699   0.625014230318917   1.0000000
N2   N   0.111119242710017   0.222227842189218   0.624948303815895   1.0000000
N2   N   0.444452066913333   0.222237467160002   0.624610410723163   1.0000000
N2   N   0.611101643479943   0.722205808607843   0.624956248183401   1.0000000
N2   N   0.944442812446015   0.722207969391615   0.624986936404511   1.0000000
N2   N   0.777775266145872   0.222227842189218   0.624948303815895   1.0000000
N2   N   0.111110657846241   0.722214328927699   0.124985769681083   1.0000000
N2   N   0.444431823612265   0.722207969391615   0.125013063595489   1.0000000
N2   N   0.277793350456559   0.222234491975896   0.125261514857829   1.0000000
N2   N   0.777770831794572   0.722205808607843   0.125043751816599   1.0000000
N2   N   0.611107808186009   0.222234491975896   0.125261514857829   1.0000000
N2   N   0.944447671812870   0.222228676959076   0.124997291200017   1.0000000
N2   N   0.111116342333544   0.388900441783643   0.624975175025712   1.0000000
N2   N   0.277772040065900   0.888877413465128   0.625001185624769   1.0000000
N2   N   0.611098766580884   0.888879078028293   0.625009921849187   1.0000000
N2   N   0.444428145786800   0.388883583221375   0.625033534117884   1.0000000
N2   N   0.944446978114080   0.888879078028293   0.625009921849187   1.0000000
N2   N   0.111111220572623   0.888880065744338   0.124991023366694   1.0000000
N2   N   0.777772945113411   0.388891996519797   0.624772366499119   1.0000000
N2   N   0.444435511838386   0.888880065744338   0.124991023366694   1.0000000
N2   N   0.277785718073057   0.388891996519797   0.125227633500881   1.0000000
N2   N   0.277773032622760   0.555553374905019   0.125042122715885   1.0000000
N2   N   0.611122104101246   0.388883583221375   0.124966465882116   1.0000000
N2   N   0.777773327565797   0.888879988464924   0.124984869595813   1.0000000
N2   N   0.944450766116771   0.388900441783643   0.125024824974288   1.0000000
N2   N   0.111110289868653   0.555553913070634   0.625012473193259   1.0000000
N2   N   0.277781411778880   0.055552686305881   0.624912295777565   1.0000000
N2   N   0.777773186955372   0.555541493967693   0.624802468853124   1.0000000
N2   N   0.611097767071041   0.055550472871975   0.624965902652968   1.0000000
N2   N   0.944448917686641   0.055555674104036   0.625005603127501   1.0000000
N2   N   0.055704141524995   0.111202076546144   0.375000000000000   1.0000000
N2   N   0.556224679973729   0.611835929301139   0.375000000000000   1.0000000
N2   N   0.390296670060741   0.113926673454825   0.375000000000000   1.0000000
N2   N   0.886635930458740   0.609439896238404   0.375000000000000   1.0000000
N2   N   0.722164601687813   0.111202076546144   0.375000000000000   1.0000000
N2   N   0.055560298307507   0.777785433259059   0.875000000000000   1.0000000
N2   N   0.388891801618217   0.777785433259059   0.875000000000000   1.0000000
N2   N   0.222217628878082   0.277781362179906   0.875000000000000   1.0000000
N2   N   0.722229714122219   0.777792761577772   0.875000000000000   1.0000000
N2   N   0.555557984193443   0.277785334011203   0.875000000000000   1.0000000
N2   N   0.888894149171626   0.277785522021478   0.875000000000000   1.0000000
N2   N   0.222238959627858   0.777811252589051   0.375000000000000   1.0000000
N2   N   0.055648887523018   0.277837430827857   0.375000000000000   1.0000000
N2   N   0.390131021515289   0.281468114563337   0.375000000000000   1.0000000
N2   N   0.555583989079684   0.778022698844464   0.375000000000000   1.0000000
N2   N   0.889105376431444   0.778022698844464   0.375000000000000   1.0000000
N2   N   0.722170025383256   0.277540052656741   0.375000000000000   1.0000000
N2   N   0.055557703205339   0.944449663128793   0.875000000000000   1.0000000
N2   N   0.388893815569809   0.944451198246259   0.875000000000000   1.0000000
N2   N   0.222229222054088   0.444451184191651   0.875000000000000   1.0000000
N2   N   0.555560744333775   0.444454822000879   0.875000000000000   1.0000000
N2   N   0.722222577712085   0.944450599119971   0.875000000000000   1.0000000
N2   N   0.888888628804227   0.444451184191651   0.875000000000000   1.0000000
N2   N   0.055447320936015   0.444227975205360   0.375000000000000   1.0000000
N2   N   0.222788774988857   0.945302682734062   0.375000000000000   1.0000000
N2   N   0.555534169779400   0.944924810169966   0.375000000000000   1.0000000
N2   N   0.391686242917203   0.440803885022943   0.375000000000000   1.0000000
N2   N   0.889085630531046   0.944636709707020   0.375000000000000   1.0000000
N2   N   0.715784308772405   0.440803885022943   0.375000000000000   1.0000000
N2   N   0.222226419663598   0.611116264743088   0.875000000000000   1.0000000
N2   N   0.055556492993576   0.111111544892490   0.875000000000000   1.0000000
N2   N   0.555557198850203   0.611112704732026   0.875000000000000   1.0000000
N2   N   0.388889324898573   0.111111983130489   0.875000000000000   1.0000000
N2   N   0.888895590968733   0.611121689037464   0.875000000000000   1.0000000
N2   N   0.054879072724714   0.610650225038957   0.375000000000000   1.0000000
N2   N   0.722221718565578   0.111111544892490   0.875000000000000   1.0000000
N2   N   0.223262346964238   0.112308661237775   0.375000000000000   1.0000000
N2   N   0.389470632446321   0.609439896238404   0.375000000000000   1.0000000
N2   N   0.722277915994076   0.611835929301139   0.375000000000000   1.0000000
N2   N   0.555712980940201   0.112308661237775   0.375000000000000   1.0000000
N2   N   0.388892764735388   0.611121689037464   0.875000000000000   1.0000000
N2   N   0.888950952237523   0.111235237808390   0.375000000000000   1.0000000
N2   N   0.222226011401628   0.777785356136592   0.875000000000000   1.0000000
N2   N   0.055558039516517   0.277785522021478   0.875000000000000   1.0000000
N2   N   0.388894016484424   0.277785334011203   0.875000000000000   1.0000000
N2   N   0.555560985440209   0.777780087173857   0.875000000000000   1.0000000
N2   N   0.888885768400313   0.777780087173857   0.875000000000000   1.0000000
N2   N   0.722230399968488   0.277781362179906   0.875000000000000   1.0000000
N2   N   0.055109800441342   0.777457970668117   0.375000000000000   1.0000000
N2   N   0.389014836893440   0.777457970668117   0.375000000000000   1.0000000
N2   N   0.222036693940149   0.277540052656741   0.375000000000000   1.0000000
N2   N   0.722455214478967   0.778243762291270   0.375000000000000   1.0000000
N2   N   0.558003759714712   0.281468114563337   0.375000000000000   1.0000000
N2   N   0.888855209971503   0.277837430827857   0.375000000000000   1.0000000
N2   N   0.055561765685815   0.444456864704958   0.875000000000000   1.0000000
N2   N   0.222224049343115   0.944451198246259   0.875000000000000   1.0000000
N2   N   0.555558626590126   0.944449663128793   0.875000000000000   1.0000000
N2   N   0.388897616560948   0.444450640459772   0.875000000000000   1.0000000
N2   N   0.888894688074550   0.944450599119971   0.875000000000000   1.0000000
N2   N   0.056057307057238   0.944924810169966   0.375000000000000   1.0000000
N2   N   0.722219690565488   0.444450640459772   0.875000000000000   1.0000000
N2   N   0.389180574411869   0.945302682734062   0.375000000000000   1.0000000
N2   N   0.223564152266208   0.443935994404740   0.375000000000000   1.0000000
N2   N   0.222437818980907   0.610650225038957   0.375000000000000   1.0000000
N2   N   0.722217745842639   0.944636709707020   0.375000000000000   1.0000000
N2   N   0.887038508805197   0.443935994404740   0.375000000000000   1.0000000
N2   N   0.055556511746154   0.611116264743088   0.875000000000000   1.0000000
N2   N   0.222227697910244   0.111119070356245   0.875000000000000   1.0000000
N2   N   0.722222172548487   0.611112704732026   0.875000000000000   1.0000000
N2   N   0.555558039112665   0.111119070356245   0.875000000000000   1.0000000
N2   N   0.888890774367251   0.111114882067844   0.875000000000000   1.0000000
B2   B   0.111279621845566   0.055835996581163   0.375000000000000   1.0000000
B2   B   0.612078274424586   0.557489882182500   0.375000000000000   1.0000000
B2   B   0.444660919826772   0.056317065016747   0.375000000000000   1.0000000
B2   B   0.943674355173079   0.555210864502649   0.375000000000000   1.0000000
B2   B   0.777841810461092   0.055542672568010   0.375000000000000   1.0000000
B2   B   0.110918972094302   0.722132768304167   0.875000000000000   1.0000000
B2   B   0.444542767952772   0.722415979760250   0.875000000000000   1.0000000
B2   B   0.277866866961320   0.222129981876469   0.875000000000000   1.0000000
B2   B   0.777871092433116   0.722135204815479   0.875000000000000   1.0000000
B2   B   0.610929781581821   0.222129981876469   0.875000000000000   1.0000000
B2   B   0.944540274178701   0.222413881690739   0.875000000000000   1.0000000
B2   B   0.277829563036172   0.722058393717397   0.375000000000000   1.0000000
B2   B   0.110227120912200   0.221785080979326   0.375000000000000   1.0000000
B2   B   0.445499982433874   0.224333298201083   0.375000000000000   1.0000000
B2   B   0.611624545362719   0.723400800508065   0.375000000000000   1.0000000
B2   B   0.943737270519886   0.721679888442396   0.375000000000000   1.0000000
B2   B   0.778224626733797   0.221785080979326   0.375000000000000   1.0000000
B2   B   0.111204527921871   0.888787516327151   0.875000000000000   1.0000000
B2   B   0.444249655071951   0.888787516327151   0.875000000000000   1.0000000
B2   B   0.277877629261683   0.389087232306511   0.875000000000000   1.0000000
B2   B   0.611192702374428   0.388838143357387   0.875000000000000   1.0000000
B2   B   0.777870842490674   0.889075018314676   0.875000000000000   1.0000000
B2   B   0.944256708588019   0.388799116830446   0.875000000000000   1.0000000
B2   B   0.111444344117495   0.388787032461477   0.375000000000000   1.0000000
B2   B   0.277887911590241   0.889109156513811   0.375000000000000   1.0000000
B2   B   0.611157617810015   0.889303904206238   0.375000000000000   1.0000000
B2   B   0.944812953062895   0.889303904206238   0.375000000000000   1.0000000
B2   B   0.776296049378483   0.387522073931078   0.375000000000000   1.0000000
B2   B   0.277602565014396   0.555484803343966   0.875000000000000   1.0000000
B2   B   0.111193971106460   0.055740671103395   0.875000000000000   1.0000000
B2   B   0.611194107569119   0.555721548471566   0.875000000000000   1.0000000
B2   B   0.444529621655636   0.055451610439120   0.875000000000000   1.0000000
B2   B   0.944548904996234   0.555484803343966   0.875000000000000   1.0000000
B2   B   0.111036357036234   0.555406047405796   0.375000000000000   1.0000000
B2   B   0.777581421561666   0.055448134207828   0.875000000000000   1.0000000
B2   B   0.278322811856639   0.056317065016747   0.375000000000000   1.0000000
B2   B   0.446369363858066   0.555266407227034   0.375000000000000   1.0000000
B2   B   0.775563710035632   0.555266407227034   0.375000000000000   1.0000000
B2   B   0.611223041402269   0.055835996581163   0.375000000000000   1.0000000
B2   B   0.444558294095160   0.555482808101987   0.875000000000000   1.0000000
B2   B   0.944367528773582   0.055542672568010   0.375000000000000   1.0000000
B2   B   0.277880462876536   0.722132768304167   0.875000000000000   1.0000000
B2   B   0.110914915969316   0.222126355399084   0.875000000000000   1.0000000
B2   B   0.444537014139464   0.222407361612263   0.875000000000000   1.0000000
B2   B   0.610930779049033   0.722135204815479   0.875000000000000   1.0000000
B2   B   0.944539878474143   0.722415979760250   0.875000000000000   1.0000000
B2   B   0.777878106096440   0.222126355399084   0.875000000000000   1.0000000
B2   B   0.110895497347896   0.722058393717397   0.375000000000000   1.0000000
B2   B   0.444609284589175   0.721679888442396   0.375000000000000   1.0000000
B2   B   0.276560333932589   0.222390237977888   0.375000000000000   1.0000000
B2   B   0.778442921812016   0.723400800508065   0.375000000000000   1.0000000
B2   B   0.612496570711970   0.222390237977888   0.375000000000000   1.0000000
B2   B   0.944423431610516   0.222180196554368   0.375000000000000   1.0000000
B2   B   0.111209074909098   0.388799116830446   0.875000000000000   1.0000000
B2   B   0.277872969976563   0.889079273286454   0.875000000000000   1.0000000
B2   B   0.611215882976977   0.888790785921878   0.875000000000000   1.0000000
B2   B   0.444312107649630   0.388838143357387   0.875000000000000   1.0000000
B2   B   0.944241569611572   0.888790785921878   0.875000000000000   1.0000000
B2   B   0.111181600086829   0.888951187913782   0.375000000000000   1.0000000
B2   B   0.777876269711500   0.389087232306511   0.875000000000000   1.0000000
B2   B   0.444436254493624   0.888951187913782   0.375000000000000   1.0000000
B2   B   0.277892691219266   0.387522073931078   0.375000000000000   1.0000000
B2   B   0.278203175996234   0.555210864502649   0.375000000000000   1.0000000
B2   B   0.778030228424869   0.889393790183068   0.375000000000000   1.0000000
B2   B   0.944009355010653   0.388787032461477   0.375000000000000   1.0000000
B2   B   0.111215696010520   0.555764725354368   0.875000000000000   1.0000000
B2   B   0.277588655450148   0.055451610439120   0.875000000000000   1.0000000
B2   B   0.777591180673492   0.555482808101987   0.875000000000000   1.0000000
B2   B   0.611213366663606   0.055740671103395   0.875000000000000   1.0000000
B2   B   0.944533379312826   0.055448134207828   0.875000000000000   1.0000000
B2   B   0.055502862980333   0.111065091785255   0.125037771989261   1.0000000
B2   B   0.555592401117737   0.611181174405000   0.124983845412647   1.0000000
B2   B   0.388826791979108   0.110986917291559   0.125073277274437   1.0000000
B2   B   0.888970726797721   0.611166975733719   0.125109101132984   1.0000000
B2   B   0.722228895471587   0.111065091785255   0.125037771989261   1.0000000
B2   B   0.055570211523218   0.777761762853359   0.624933868769077   1.0000000
B2   B   0.388858217996805   0.777761762853359   0.624933868769077   1.0000000
B2   B   0.222135263325677   0.277762974322197   0.624969370325393   1.0000000
B2   B   0.722238981275783   0.777811295884901   0.624895606667981   1.0000000
B2   B   0.555606568843792   0.277795302112334   0.625275237053824   1.0000000
B2   B   0.888930436411789   0.277790095543215   0.624968106340119   1.0000000
B2   B   0.222206338102468   0.777746009538272   0.125127895878587   1.0000000
B2   B   0.055526325798090   0.277790095543215   0.125031893659881   1.0000000
B2   B   0.388855399935207   0.277795302112334   0.124724762946176   1.0000000
B2   B   0.555544817979500   0.777793285425422   0.125059857287588   1.0000000
B2   B   0.888915134112587   0.777793285425422   0.125059857287588   1.0000000
B2   B   0.722294377663185   0.277762974322197   0.125030629674607   1.0000000
B2   B   0.055525767033047   0.944387146822245   0.624892009150052   1.0000000
B2   B   0.388841480707397   0.944346966129413   0.624949736016918   1.0000000
B2   B   0.222173351149165   0.444498453938623   0.624955479572719   1.0000000
B2   B   0.555596259474268   0.444525852281866   0.625047146689283   1.0000000
B2   B   0.722214698271729   0.944427660739699   0.624933010526748   1.0000000
B2   B   0.888991769456122   0.444498453938623   0.624955479572719   1.0000000
B2   B   0.055578704656739   0.444490742646806   0.125101886677671   1.0000000
B2   B   0.222172152088680   0.944346966129413   0.125050263983082   1.0000000
B2   B   0.555528046455869   0.944387146822245   0.125107990849948   1.0000000
B2   B   0.388877618739886   0.444497540089842   0.124779987205722   1.0000000
B2   B   0.888879629134635   0.944427660739699   0.125066989473252   1.0000000
B2   B   0.722286588016621   0.444497540089842   0.124779987205722   1.0000000
B2   B   0.222208473585833   0.611144217392388   0.624939991247924   1.0000000
B2   B   0.055502862980333   0.111065091785255   0.624962228010739   1.0000000
B2   B   0.555592401117737   0.611181174405000   0.625016154587353   1.0000000
B2   B   0.388826791979108   0.110986917291559   0.624926722725564   1.0000000
B2   B   0.888970726797721   0.611166975733719   0.624890898867016   1.0000000
B2   B   0.055602410473219   0.611144217392388   0.125060008752076   1.0000000
B2   B   0.722228895471587   0.111065091785255   0.624962228010739   1.0000000
B2   B   0.222140705386207   0.111007820680000   0.125025195591898   1.0000000
B2   B   0.388862915602656   0.611166975733719   0.125109101132984   1.0000000
B2   B   0.722255439953927   0.611181174405000   0.124983845412647   1.0000000
B2   B   0.555533781960458   0.111007820680000   0.125025195591898   1.0000000
B2   B   0.388862915602656   0.611166975733719   0.624890898867016   1.0000000
B2   B   0.888879937004128   0.111093207341599   0.125114670882223   1.0000000
B2   B   0.222206338102468   0.777746009538272   0.624872104121413   1.0000000
B2   B   0.055526325798090   0.277790095543215   0.624968106340119   1.0000000
B2   B   0.388855399935207   0.277795302112334   0.625275237053824   1.0000000
B2   B   0.555544817979500   0.777793285425422   0.624940142712412   1.0000000
B2   B   0.888915134112587   0.777793285425422   0.624940142712412   1.0000000
B2   B   0.722294377663185   0.277762974322197   0.624969370325393   1.0000000
B2   B   0.055570211523218   0.777761762853359   0.125066131230924   1.0000000
B2   B   0.388858217996805   0.777761762853359   0.125066131230924   1.0000000
B2   B   0.222135263325677   0.277762974322197   0.125030629674607   1.0000000
B2   B   0.722238981275783   0.777811295884901   0.125104393332019   1.0000000
B2   B   0.555606568843792   0.277795302112334   0.124724762946176   1.0000000
B2   B   0.888930436411789   0.277790095543215   0.125031893659881   1.0000000
B2   B   0.055578704656739   0.444490742646806   0.624898113322329   1.0000000
B2   B   0.222172152088680   0.944346966129413   0.624949736016918   1.0000000
B2   B   0.555528046455869   0.944387146822245   0.624892009150052   1.0000000
B2   B   0.388877618739886   0.444497540089842   0.625220012794278   1.0000000
B2   B   0.888879629134635   0.944427660739699   0.624933010526748   1.0000000
B2   B   0.055525767033047   0.944387146822245   0.125107990849948   1.0000000
B2   B   0.722286588016621   0.444497540089842   0.625220012794278   1.0000000
B2   B   0.388841480707397   0.944346966129413   0.125050263983082   1.0000000
B2   B   0.222173351149165   0.444498453938623   0.125044520427281   1.0000000
B2   B   0.222208473585833   0.611144217392388   0.125060008752076   1.0000000
B2   B   0.555596259474268   0.444525852281866   0.124952853310717   1.0000000
B2   B   0.722214698271729   0.944427660739699   0.125066989473252   1.0000000
B2   B   0.888991769456122   0.444498453938623   0.125044520427281   1.0000000
B2   B   0.055602410473219   0.611144217392388   0.624939991247924   1.0000000
B2   B   0.222140705386207   0.111007820680000   0.624974804408102   1.0000000
B2   B   0.722255439953927   0.611181174405000   0.625016154587353   1.0000000
B2   B   0.555533781960458   0.111007820680000   0.624974804408102   1.0000000
B2   B   0.888879937004128   0.111093207341599   0.624885329117777   1.0000000


