data_1
_audit_creation_method   'vasp2cif'
_cell_length_a    14.93631414619966
_cell_length_b    14.936314146199727
_cell_length_c    13.341276283792837
_cell_angle_alpha    90.0
_cell_angle_beta    90.0
_cell_angle_gamma    119.99999999999984

_symmetry_space_group_name_H-M    'P 1'
loop_
_atom_site_label
_atom_site_type_symbol
_atom_site_fract_x
_atom_site_fract_y
_atom_site_fract_z
_atom_site_occupancy
O2   O   0.438112159661626   0.386354410766027   0.375000000000000   1.0000000
N2   N   0.111090783205338   0.055523064784342   0.125243021555794   1.0000000
N2   N   0.611101316019395   0.555518531627790   0.127218899658980   1.0000000
N2   N   0.444418619516322   0.055553667929545   0.125199996395905   1.0000000
N2   N   0.944431161711356   0.555552877453121   0.125441900066696   1.0000000
N2   N   0.777757876526329   0.055524968437857   0.125182927604869   1.0000000
N2   N   0.111104622326798   0.722222623024877   0.624761012541710   1.0000000
N2   N   0.444416608198734   0.722203408523765   0.624616911977558   1.0000000
N2   N   0.277755638941798   0.222205243159214   0.624300278213810   1.0000000
N2   N   0.777770376270457   0.722190947252326   0.624281846867755   1.0000000
N2   N   0.611101629263890   0.222211639050266   0.624716553454925   1.0000000
N2   N   0.944429256539187   0.222211719316872   0.624824947549246   1.0000000
N2   N   0.277759860179906   0.722226735404383   0.125208194234656   1.0000000
N2   N   0.111099515905313   0.222205414552279   0.125291409462443   1.0000000
N2   N   0.444389603265597   0.222212523190849   0.125517365277923   1.0000000
N2   N   0.611090617058644   0.722180239528423   0.125735798072479   1.0000000
N2   N   0.944444658227681   0.722208197547408   0.125354271322140   1.0000000
N2   N   0.777756731500418   0.222203864203325   0.125211121947394   1.0000000
N2   N   0.111105059094035   0.888875124324407   0.624784970404621   1.0000000
N2   N   0.444416866797023   0.888885352576760   0.624815119223662   1.0000000
N2   N   0.277765769694819   0.388870361855526   0.624386292873524   1.0000000
N2   N   0.611054477801532   0.388850751449274   0.624874970143803   1.0000000
N2   N   0.777762494990888   0.888853965775383   0.624759252478807   1.0000000
N2   N   0.944430398092663   0.388891507720254   0.624803360104388   1.0000000
N2   N   0.111099193931947   0.388892300271280   0.125213118610259   1.0000000
N2   N   0.277764851603626   0.888889940127763   0.125178217176501   1.0000000
N2   N   0.611076991183161   0.888858602256388   0.125251496018843   1.0000000
N2   N   0.444401716547036   0.388856084092761   0.125869942290866   1.0000000
N2   N   0.944439657100033   0.888860120439160   0.125237879232856   1.0000000
N2   N   0.777757215710242   0.388880952685799   0.125711972313014   1.0000000
N2   N   0.277767887425787   0.555558898366210   0.624640114566522   1.0000000
N2   N   0.111090783205338   0.055523064784342   0.624756978444205   1.0000000
N2   N   0.611101316019395   0.555518531627790   0.622781100341020   1.0000000
N2   N   0.444418619516322   0.055553667929545   0.624800003604095   1.0000000
N2   N   0.944431161711356   0.555552877453121   0.624558099933304   1.0000000
N2   N   0.111096474955554   0.555565779110179   0.125221673453786   1.0000000
N2   N   0.777757876526329   0.055524968437857   0.624817072395131   1.0000000
N2   N   0.277753091350978   0.055542909168568   0.125305852319866   1.0000000
N2   N   0.444437762698863   0.555525650609764   0.126015909011171   1.0000000
N2   N   0.777767787695864   0.555534670019988   0.126170004336457   1.0000000
N2   N   0.611082130962280   0.055543225049537   0.125190627882381   1.0000000
N2   N   0.444437762698863   0.555525650609764   0.623984090988829   1.0000000
N2   N   0.944433702148057   0.055523401982960   0.125203329036692   1.0000000
N2   N   0.277759860179906   0.722226735404383   0.624791805765344   1.0000000
N2   N   0.111099515905313   0.222205414552279   0.624708590537557   1.0000000
N2   N   0.444389603265597   0.222212523190849   0.624482634722076   1.0000000
N2   N   0.611090617058644   0.722180239528423   0.624264201927522   1.0000000
N2   N   0.944444658227681   0.722208197547408   0.624645728677860   1.0000000
N2   N   0.777756731500418   0.222203864203325   0.624788878052606   1.0000000
N2   N   0.111104622326798   0.722222623024877   0.125238987458289   1.0000000
N2   N   0.444416608198734   0.722203408523765   0.125383088022442   1.0000000
N2   N   0.277755638941798   0.222205243159214   0.125699721786191   1.0000000
N2   N   0.777770376270457   0.722190947252326   0.125718153132245   1.0000000
N2   N   0.611101629263890   0.222211639050266   0.125283446545075   1.0000000
N2   N   0.944429256539187   0.222211719316872   0.125175052450755   1.0000000
N2   N   0.111099193931947   0.388892300271280   0.624786881389741   1.0000000
N2   N   0.277764851603626   0.888889940127763   0.624821782823499   1.0000000
N2   N   0.611076991183161   0.888858602256388   0.624748503981158   1.0000000
N2   N   0.444401716547036   0.388856084092761   0.624130057709135   1.0000000
N2   N   0.944439657100033   0.888860120439160   0.624762120767144   1.0000000
N2   N   0.111105059094035   0.888875124324407   0.125215029595379   1.0000000
N2   N   0.777757215710242   0.388880952685799   0.624288027686986   1.0000000
N2   N   0.444416866797023   0.888885352576760   0.125184880776337   1.0000000
N2   N   0.277765769694819   0.388870361855526   0.125613707126477   1.0000000
N2   N   0.277767887425787   0.555558898366210   0.125359885433478   1.0000000
N2   N   0.611054477801532   0.388850751449274   0.125125029856197   1.0000000
N2   N   0.777762494990888   0.888853965775383   0.125240747521193   1.0000000
N2   N   0.944430398092663   0.388891507720254   0.125196639895613   1.0000000
N2   N   0.111096474955554   0.555565779110179   0.624778326546214   1.0000000
N2   N   0.277753091350978   0.055542909168568   0.624694147680135   1.0000000
N2   N   0.777767787695864   0.555534670019988   0.623829995663543   1.0000000
N2   N   0.611082130962280   0.055543225049537   0.624809372117619   1.0000000
N2   N   0.944433702148057   0.055523401982960   0.624796670963308   1.0000000
N2   N   0.054032179763945   0.109887140933637   0.375000000000000   1.0000000
N2   N   0.553260558377572   0.607506380455494   0.375000000000000   1.0000000
N2   N   0.389427744143175   0.114762279052764   0.375000000000000   1.0000000
N2   N   0.890753510298039   0.611535113196306   0.375000000000000   1.0000000
N2   N   0.721965827980332   0.110469820333571   0.375000000000000   1.0000000
N2   N   0.055549721700471   0.777777897051257   0.875000000000000   1.0000000
N2   N   0.388893209855503   0.777779346869601   0.875000000000000   1.0000000
N2   N   0.222218169506319   0.277781560711556   0.875000000000000   1.0000000
N2   N   0.722218950418227   0.777781487658351   0.875000000000000   1.0000000
N2   N   0.555555097865652   0.277779596026239   0.875000000000000   1.0000000
N2   N   0.888890548181985   0.277780223821193   0.875000000000000   1.0000000
N2   N   0.223219575037964   0.778299148958525   0.375000000000000   1.0000000
N2   N   0.053971353943372   0.276828765901167   0.375000000000000   1.0000000
N2   N   0.385861389406972   0.282041221006622   0.375000000000000   1.0000000
N2   N   0.554829876465318   0.776588920265529   0.375000000000000   1.0000000
N2   N   0.890770614615726   0.778570341265148   0.375000000000000   1.0000000
N2   N   0.723895236984839   0.278121457658448   0.375000000000000   1.0000000
N2   N   0.055551170742800   0.944450504143622   0.875000000000000   1.0000000
N2   N   0.388894463251559   0.944447800804704   0.875000000000000   1.0000000
N2   N   0.222219461546292   0.444443713937924   0.875000000000000   1.0000000
N2   N   0.555550738280324   0.444453753748470   0.875000000000000   1.0000000
N2   N   0.722224072863421   0.944450810860977   0.875000000000000   1.0000000
N2   N   0.888890454923447   0.444444510792686   0.875000000000000   1.0000000
N2   N   0.055814789257488   0.444074585266327   0.375000000000000   1.0000000
N2   N   0.223401182535428   0.945954319268969   0.375000000000000   1.0000000
N2   N   0.555353890574730   0.944169860560698   0.375000000000000   1.0000000
N2   N   0.383884670752540   0.438110909878934   0.375000000000000   1.0000000
N2   N   0.888354356466697   0.943602571703811   0.375000000000000   1.0000000
N2   N   0.721043113235690   0.442798333331068   0.375000000000000   1.0000000
N2   N   0.222218288105973   0.611105843284924   0.875000000000000   1.0000000
N2   N   0.055550948228689   0.111113174670246   0.875000000000000   1.0000000
N2   N   0.555552614527874   0.611109396083561   0.875000000000000   1.0000000
N2   N   0.388892734587639   0.111117307974994   0.875000000000000   1.0000000
N2   N   0.888882137586760   0.611107024259463   0.875000000000000   1.0000000
N2   N   0.056647828588762   0.611223696736622   0.375000000000000   1.0000000
N2   N   0.722223206196357   0.111113391443660   0.875000000000000   1.0000000
N2   N   0.222349537460364   0.112269125484195   0.375000000000000   1.0000000
N2   N   0.388579481199130   0.607710768596625   0.375000000000000   1.0000000
N2   N   0.726540326836531   0.611236464750122   0.375000000000000   1.0000000
N2   N   0.555903686366196   0.111722831500578   0.375000000000000   1.0000000
N2   N   0.388890129739638   0.611109591710223   0.875000000000000   1.0000000
N2   N   0.887973413250231   0.110096413603454   0.375000000000000   1.0000000
N2   N   0.222221562469363   0.777776368617930   0.875000000000000   1.0000000
N2   N   0.055551999037101   0.277777254295683   0.875000000000000   1.0000000
N2   N   0.388888389115435   0.277787372137209   0.875000000000000   1.0000000
N2   N   0.555558276431344   0.777780436222389   0.875000000000000   1.0000000
N2   N   0.888881990610170   0.777781245644693   0.875000000000000   1.0000000
N2   N   0.722225461596069   0.277779737020931   0.875000000000000   1.0000000
N2   N   0.057011395684632   0.778575594501299   0.375000000000000   1.0000000
N2   N   0.389161091978800   0.776986185778299   0.375000000000000   1.0000000
N2   N   0.218181518841284   0.275708372352345   0.375000000000000   1.0000000
N2   N   0.722071318794293   0.776872194137676   0.375000000000000   1.0000000
N2   N   0.552700150268301   0.271462299418066   0.375000000000000   1.0000000
N2   N   0.888783530734280   0.277209103440774   0.375000000000000   1.0000000
N2   N   0.055553475822847   0.444443131002104   0.875000000000000   1.0000000
N2   N   0.222223214912149   0.944450863440489   0.875000000000000   1.0000000
N2   N   0.555559485839957   0.944450129295133   0.875000000000000   1.0000000
N2   N   0.388887055804777   0.444450742114068   0.875000000000000   1.0000000
N2   N   0.888888414958151   0.944450601925116   0.875000000000000   1.0000000
N2   N   0.056283059890450   0.945029842890953   0.375000000000000   1.0000000
N2   N   0.722223041400745   0.444446094884137   0.875000000000000   1.0000000
N2   N   0.389549425054363   0.945754137664923   0.375000000000000   1.0000000
N2   N   0.221393854482663   0.443266676942665   0.375000000000000   1.0000000
N2   N   0.222796044325093   0.610635095670704   0.375000000000000   1.0000000
N2   N   0.721555230812678   0.943451771798784   0.375000000000000   1.0000000
N2   N   0.889897310499497   0.444105719044358   0.375000000000000   1.0000000
N2   N   0.055549274694029   0.611105266588973   0.875000000000000   1.0000000
N2   N   0.222220140571463   0.111118899916712   0.875000000000000   1.0000000
N2   N   0.722211647741685   0.611109623863041   0.875000000000000   1.0000000
N2   N   0.555557825452967   0.111113620239088   0.875000000000000   1.0000000
N2   N   0.888889740655616   0.111113483120078   0.875000000000000   1.0000000
B2   B   0.110465865216239   0.055535163827853   0.375000000000000   1.0000000
B2   B   0.626778019073524   0.581646191585426   0.375000000000000   1.0000000
B2   B   0.445048113919877   0.057383113656168   0.375000000000000   1.0000000
B2   B   0.946416074825133   0.555209228712231   0.375000000000000   1.0000000
B2   B   0.777106573652093   0.054856190751591   0.375000000000000   1.0000000
B2   B   0.111122568595262   0.722223337663913   0.875000000000000   1.0000000
B2   B   0.444435931424462   0.722267555260134   0.875000000000000   1.0000000
B2   B   0.277744619822084   0.222188706299443   0.875000000000000   1.0000000
B2   B   0.777811761224387   0.722267109468927   0.875000000000000   1.0000000
B2   B   0.611127137351596   0.222195605748507   0.875000000000000   1.0000000
B2   B   0.944415581833341   0.222215228734240   0.875000000000000   1.0000000
B2   B   0.278066689400046   0.722143513079738   0.375000000000000   1.0000000
B2   B   0.106595324083274   0.219735937447834   0.375000000000000   1.0000000
B2   B   0.446558478831935   0.226636248651398   0.375000000000000   1.0000000
B2   B   0.611722597195703   0.724749518228363   0.375000000000000   1.0000000
B2   B   0.946875290213048   0.723296047090140   0.375000000000000   1.0000000
B2   B   0.778191935934038   0.221323507474812   0.375000000000000   1.0000000
B2   B   0.111123410974295   0.888895328647590   0.875000000000000   1.0000000
B2   B   0.444453836603710   0.888915723913352   0.875000000000000   1.0000000
B2   B   0.277718671289777   0.388872186358406   0.875000000000000   1.0000000
B2   B   0.611120177132606   0.388837289104297   0.875000000000000   1.0000000
B2   B   0.777799882310112   0.888954406025388   0.875000000000000   1.0000000
B2   B   0.944436596673464   0.388867828327320   0.875000000000000   1.0000000
B2   B   0.109595889439211   0.387671796724212   0.375000000000000   1.0000000
B2   B   0.278649385762652   0.889747703371939   0.375000000000000   1.0000000
B2   B   0.610817114559043   0.889041908031468   0.375000000000000   1.0000000
B2   B   0.945691309416810   0.890133496114018   0.375000000000000   1.0000000
B2   B   0.779361467589490   0.388067894900397   0.375000000000000   1.0000000
B2   B   0.277734350038361   0.555562947556586   0.875000000000000   1.0000000
B2   B   0.111090877113676   0.055547599289013   0.875000000000000   1.0000000
B2   B   0.611119750169055   0.555553896186861   0.875000000000000   1.0000000
B2   B   0.444461743456133   0.055543229698797   0.875000000000000   1.0000000
B2   B   0.944463523871673   0.555537528809998   0.875000000000000   1.0000000
B2   B   0.111608917810988   0.555129187835700   0.375000000000000   1.0000000
B2   B   0.777781305763969   0.055587850114097   0.875000000000000   1.0000000
B2   B   0.278295039766557   0.056715432175056   0.375000000000000   1.0000000
B2   B   0.442203084424188   0.551988024689785   0.375000000000000   1.0000000
B2   B   0.781952005591646   0.554379292776393   0.375000000000000   1.0000000
B2   B   0.611125139141856   0.055475454075003   0.375000000000000   1.0000000
B2   B   0.444413808596996   0.555572814733301   0.875000000000000   1.0000000
B2   B   0.942998935297276   0.054522022516762   0.375000000000000   1.0000000
B2   B   0.277770191185861   0.722236295834434   0.875000000000000   1.0000000
B2   B   0.111055726992871   0.222201803073642   0.875000000000000   1.0000000
B2   B   0.444461212032516   0.222184585237782   0.875000000000000   1.0000000
B2   B   0.611125102256782   0.722285463518059   0.875000000000000   1.0000000
B2   B   0.944476414438439   0.722236503486253   0.875000000000000   1.0000000
B2   B   0.777781288045894   0.222210875991868   0.875000000000000   1.0000000
B2   B   0.112400608654615   0.722676379421763   0.375000000000000   1.0000000
B2   B   0.443684883159033   0.720922797825716   0.375000000000000   1.0000000
B2   B   0.272297806015577   0.221259695967376   0.375000000000000   1.0000000
B2   B   0.782125435696789   0.726415374793862   0.375000000000000   1.0000000
B2   B   0.613452394312755   0.223222942106376   0.375000000000000   1.0000000
B2   B   0.943028457570374   0.220975446770295   0.375000000000000   1.0000000
B2   B   0.111059815539065   0.388872153603238   0.875000000000000   1.0000000
B2   B   0.277790631584547   0.888891759904673   0.875000000000000   1.0000000
B2   B   0.611126384961014   0.888949054311175   0.875000000000000   1.0000000
B2   B   0.444429889231916   0.388864489882897   0.875000000000000   1.0000000
B2   B   0.944461102519274   0.888924802306646   0.875000000000000   1.0000000
B2   B   0.112307679800080   0.889834528137716   0.375000000000000   1.0000000
B2   B   0.777800511067204   0.388849970722517   0.875000000000000   1.0000000
B2   B   0.444437560429002   0.889109476805790   0.375000000000000   1.0000000
B2   B   0.271524166207409   0.384385291916613   0.375000000000000   1.0000000
B2   B   0.276646965450176   0.554282138169485   0.375000000000000   1.0000000
B2   B   0.777827140271505   0.889295918839718   0.375000000000000   1.0000000
B2   B   0.944900548232165   0.388060444226241   0.375000000000000   1.0000000
B2   B   0.111093052983683   0.555546337894928   0.875000000000000   1.0000000
B2   B   0.277781957478708   0.055536550066938   0.875000000000000   1.0000000
B2   B   0.777812238300069   0.555540850414844   0.875000000000000   1.0000000
B2   B   0.611124734807901   0.055571571433322   0.875000000000000   1.0000000
B2   B   0.944429469419706   0.055574772799381   0.875000000000000   1.0000000
B2   B   0.055467035824326   0.111007371999298   0.124678059561236   1.0000000
B2   B   0.555548309123119   0.611204500722443   0.124984970393023   1.0000000
B2   B   0.388856148150999   0.110969315161901   0.124768650872815   1.0000000
B2   B   0.889063808776022   0.611157967071077   0.124912103598542   1.0000000
B2   B   0.722185673121493   0.111097096190276   0.124766753914030   1.0000000
B2   B   0.055658475575382   0.777809119940462   0.625244588830596   1.0000000
B2   B   0.388807283191958   0.777880581418410   0.625264334852021   1.0000000
B2   B   0.222039951224658   0.277646434785222   0.625422142178709   1.0000000
B2   B   0.722330803665140   0.777939886995720   0.625314932433412   1.0000000
B2   B   0.555611728695959   0.277691007947492   0.624946794928222   1.0000000
B2   B   0.888839643806792   0.277751356022490   0.625253947477808   1.0000000
B2   B   0.222221140268492   0.777824110211782   0.124771055545687   1.0000000
B2   B   0.055430086162944   0.277755275940786   0.124671590433173   1.0000000
B2   B   0.388857394343968   0.277602140917928   0.124501390646686   1.0000000
B2   B   0.555499106838965   0.777926530662968   0.124699015371963   1.0000000
B2   B   0.889078708831664   0.777873903151278   0.124699204604648   1.0000000
B2   B   0.722180757927928   0.277665703892772   0.124912630444238   1.0000000
B2   B   0.055586633294825   0.944395845409138   0.625290195442227   1.0000000
B2   B   0.388853669359165   0.944440037530775   0.625243661520202   1.0000000
B2   B   0.222057080567961   0.444466732411666   0.625327051319903   1.0000000
B2   B   0.555571525107910   0.444171085774351   0.624797847977127   1.0000000
B2   B   0.722215850323656   0.944521148249587   0.625288047980452   1.0000000
B2   B   0.888911004971004   0.444405667875889   0.625075569483768   1.0000000
B2   B   0.055485585820643   0.444468943227414   0.124722078820879   1.0000000
B2   B   0.222207813094604   0.944357931121629   0.124751399512295   1.0000000
B2   B   0.555499080078340   0.944497937379741   0.124746099334770   1.0000000
B2   B   0.388787084797482   0.444343179109985   0.124606672667361   1.0000000
B2   B   0.888934181755802   0.944482957137606   0.124692976604247   1.0000000
B2   B   0.722135085472355   0.444241767654051   0.125094640435948   1.0000000
B2   B   0.222137665467835   0.611201916945104   0.625266811794536   1.0000000
B2   B   0.055467035824326   0.111007371999298   0.625321940438764   1.0000000
B2   B   0.555548309123119   0.611204500722443   0.625015029606977   1.0000000
B2   B   0.388856148150999   0.110969315161901   0.625231349127184   1.0000000
B2   B   0.889063808776022   0.611157967071077   0.625087896401457   1.0000000
B2   B   0.055613072728756   0.611165733938607   0.124793679459344   1.0000000
B2   B   0.722185673121493   0.111097096190276   0.625233246085970   1.0000000
B2   B   0.222110578635825   0.110900646749800   0.124717792561028   1.0000000
B2   B   0.388753670499650   0.611226536067209   0.124723612285461   1.0000000
B2   B   0.722421476715910   0.611167301230486   0.125142877165542   1.0000000
B2   B   0.555536132546149   0.111067776130176   0.124776617100709   1.0000000
B2   B   0.388753670499650   0.611226536067209   0.625276387714539   1.0000000
B2   B   0.888841263544271   0.111100122780756   0.124743205901659   1.0000000
B2   B   0.222221140268492   0.777824110211782   0.625228944454312   1.0000000
B2   B   0.055430086162944   0.277755275940786   0.625328409566827   1.0000000
B2   B   0.388857394343968   0.277602140917928   0.625498609353314   1.0000000
B2   B   0.555499106838965   0.777926530662968   0.625300984628037   1.0000000
B2   B   0.889078708831664   0.777873903151278   0.625300795395352   1.0000000
B2   B   0.722180757927928   0.277665703892772   0.625087369555763   1.0000000
B2   B   0.055658475575382   0.777809119940462   0.124755411169404   1.0000000
B2   B   0.388807283191958   0.777880581418410   0.124735665147979   1.0000000
B2   B   0.222039951224658   0.277646434785222   0.124577857821292   1.0000000
B2   B   0.722330803665140   0.777939886995720   0.124685067566588   1.0000000
B2   B   0.555611728695959   0.277691007947492   0.125053205071778   1.0000000
B2   B   0.888839643806792   0.277751356022490   0.124746052522192   1.0000000
B2   B   0.055485585820643   0.444468943227414   0.625277921179121   1.0000000
B2   B   0.222207813094604   0.944357931121629   0.625248600487704   1.0000000
B2   B   0.555499080078340   0.944497937379741   0.625253900665230   1.0000000
B2   B   0.388787084797482   0.444343179109985   0.625393327332640   1.0000000
B2   B   0.888934181755802   0.944482957137606   0.625307023395753   1.0000000
B2   B   0.055586633294825   0.944395845409138   0.124709804557774   1.0000000
B2   B   0.722135085472355   0.444241767654051   0.624905359564052   1.0000000
B2   B   0.388853669359165   0.944440037530775   0.124756338479798   1.0000000
B2   B   0.222057080567961   0.444466732411666   0.124672948680097   1.0000000
B2   B   0.222137665467835   0.611201916945104   0.124733188205463   1.0000000
B2   B   0.555571525107910   0.444171085774351   0.125202152022873   1.0000000
B2   B   0.722215850323656   0.944521148249587   0.124711952019547   1.0000000
B2   B   0.888911004971004   0.444405667875889   0.124924430516232   1.0000000
B2   B   0.055613072728756   0.611165733938607   0.625206320540656   1.0000000
B2   B   0.222110578635825   0.110900646749800   0.625282207438972   1.0000000
B2   B   0.722421476715910   0.611167301230486   0.624857122834457   1.0000000
B2   B   0.555536132546149   0.111067776130176   0.625223382899291   1.0000000
B2   B   0.888841263544271   0.111100122780756   0.625256794098341   1.0000000


