data_1
_audit_creation_method   'vasp2cif'
_cell_length_a    17.52789999999977
_cell_length_b    17.52789999999977
_cell_length_c    15.0
_cell_angle_alpha    90.0
_cell_angle_beta    90.0
_cell_angle_gamma    119.99999999999916

_symmetry_space_group_name_H-M    'P 1'
loop_
_atom_site_label
_atom_site_type_symbol
_atom_site_fract_x
_atom_site_fract_y
_atom_site_fract_z
_atom_site_occupancy
B2   B   0.905149255056507   0.952935513455055   0.111121919494188   1.0000000
B2   B   0.904537353045421   0.095464668150575   0.109263903464464   1.0000000
B2   B   0.904355399071559   0.238246867014662   0.109810635576499   1.0000000
B2   B   0.904504626147477   0.381124072970720   0.112098288116954   1.0000000
B2   B   0.905259482036547   0.524104876304861   0.114601458172417   1.0000000
B2   B   0.905647855521844   0.667197556765149   0.114766771548242   1.0000000
B2   B   0.905713355211150   0.810311297925667   0.114361473950046   1.0000000
B2   B   0.047672138200352   0.952329882995637   0.111557210641972   1.0000000
B2   B   0.047066507740942   0.094852766139489   0.111121919494188   1.0000000
B2   B   0.046863861431270   0.237825657040004   0.110627943383969   1.0000000
B2   B   0.047007983875977   0.380889136114263   0.110479006280903   1.0000000
B2   B   0.047542357654357   0.523893219884258   0.110527427282718   1.0000000
B2   B   0.047987009515021   0.666802132548004   0.111125809374334   1.0000000
B2   B   0.048006235842811   0.809651341698311   0.111625199297219   1.0000000
B2   B   0.190350679497678   0.951995785353192   0.111625199297219   1.0000000
B2   B   0.189690723270343   0.094288665984846   0.114361473950046   1.0000000
B2   B   0.188836273031524   0.236653455370239   0.113473054491306   1.0000000
B2   B   0.189160742768394   0.380323050047656   0.113017430448674   1.0000000
B2   B   0.189857341284826   0.523693746415023   0.111427790695357   1.0000000
B2   B   0.190602868291319   0.666620011681068   0.109717925826135   1.0000000
B2   B   0.190602129040043   0.809399892155954   0.109497427298083   1.0000000
B2   B   0.333199888649009   0.952015011680990   0.111125809374334   1.0000000
B2   B   0.332804464431840   0.094354165674153   0.114766771548242   1.0000000
B2   B   0.331548097286547   0.235968471558367   0.114107657999874   1.0000000
B2   B   0.329951048872137   0.378110355374529   0.113034922970626   1.0000000
B2   B   0.331665656216089   0.523305178393283   0.118691230113733   1.0000000
B2   B   0.333432893647701   0.666569127549304   0.113745680156905   1.0000000
B2   B   0.333382009515931   0.809399152904686   0.109717925826135   1.0000000
B2   B   0.476108801312727   0.952459663541639   0.110527427282718   1.0000000
B2   B   0.475897144892137   0.094742539159456   0.114601458172417   1.0000000
B2   B   0.475558401789256   0.236661286673456   0.113370144575017   1.0000000
B2   B   0.470876567198968   0.371427581006332   0.082556010037371   1.0000000
B2   B   0.476696842803716   0.668336364980902   0.118691230113726   1.0000000
B2   B   0.476308274781982   0.810144679911178   0.111427790695357   1.0000000
B2   B   0.619112885081754   0.952994037320033   0.110479006280903   1.0000000
B2   B   0.618877948225283   0.095497395048519   0.112098288116954   1.0000000
B2   B   0.618781764037880   0.238197972491357   0.114780605999297   1.0000000
B2   B   0.618922121127558   0.381079900068437   0.104658511805526   1.0000000
B2   B   0.628574440189671   0.529125453998023   0.082556010037371   1.0000000
B2   B   0.621891665821474   0.670050972324867   0.113034922970626   1.0000000
B2   B   0.619678971148355   0.810841278427609   0.113017430448674   1.0000000
B2   B   0.762176364155993   0.953138159764726   0.110627943383969   1.0000000
B2   B   0.761755154181334   0.095646622124438   0.109810635576499   1.0000000
B2   B   0.761648255331205   0.238353765864800   0.112523878127235   1.0000000
B2   B   0.761804048704647   0.381220257158123   0.114780605999297   1.0000000
B2   B   0.763340734522533   0.524443619407727   0.113370144575017   1.0000000
B2   B   0.764033549637636   0.668453923910458   0.114107657999874   1.0000000
B2   B   0.763348565825757   0.811165748164473   0.113473054491306   1.0000000
N2   N   0.952722183113323   0.905237709148006   0.111986311507876   1.0000000
N2   N   0.952172437372727   0.047828964545265   0.109832079124604   1.0000000
N2   N   0.951854476049761   0.190537399993252   0.109233931104686   1.0000000
N2   N   0.951900879636568   0.333400707216294   0.110239795437053   1.0000000
N2   N   0.952430014379386   0.476306679507388   0.112274879695225   1.0000000
N2   N   0.952886191773752   0.619300200910345   0.113751673681727   1.0000000
N2   N   0.952976693039370   0.762340436746401   0.113811856129585   1.0000000
N2   N   0.095291393067345   0.904710008850653   0.111191083111753   1.0000000
N2   N   0.094763692769993   0.047279218804697   0.111986311507876   1.0000000
N2   N   0.094097597448827   0.189788094811474   0.111630497394022   1.0000000
N2   N   0.094225242289668   0.332969227795544   0.111387955638955   1.0000000
N2   N   0.094788736394267   0.476099778079413   0.110123880403875   1.0000000
N2   N   0.095379967767196   0.619075850153407   0.109800088050617   1.0000000
N2   N   0.095475759386712   0.761948433505944   0.110262030230956   1.0000000
N2   N   0.238052968412062   0.904525642531286   0.110262030230956   1.0000000
N2   N   0.237660965171605   0.047024708878628   0.113811856129585   1.0000000
N2   N   0.236687826103124   0.189200924223153   0.116300126667599   1.0000000
N2   N   0.235623162795070   0.331498731990910   0.113112985051316   1.0000000
N2   N   0.236810523168119   0.475660537157239   0.113408660358945   1.0000000
N2   N   0.238080368853362   0.618956989020059   0.111281999605268   1.0000000
N2   N   0.238178586382292   0.761822815535720   0.109056512033924   1.0000000
N2   N   0.380925551764605   0.904621434150801   0.109800088050617   1.0000000
N2   N   0.380701201007655   0.047115210144253   0.113751673681727   1.0000000
N2   N   0.380202177413353   0.189385386502780   0.115212335984426   1.0000000
N2   N   0.378517658755715   0.330697859583356   0.105786202474411   1.0000000
N2   N   0.374918306800343   0.472415757101613   0.123766814560446   1.0000000
N2   N   0.380979419407596   0.619021982510418   0.118920752225945   1.0000000
N2   N   0.381044412897932   0.761921033064645   0.111281999605268   1.0000000
N2   N   0.523901623837592   0.905212665523732   0.110123880403875   1.0000000
N2   N   0.523694722409608   0.047571387538619   0.112274879695225   1.0000000
N2   N   0.523550921465559   0.189855358893193   0.116527666538127   1.0000000
N2   N   0.522941082012811   0.331242904625696   0.102520073031091   1.0000000
N2   N   0.527585644815397   0.625083095117662   0.123766814560446   1.0000000
N2   N   0.524340864759756   0.763190878749902   0.113408660358945   1.0000000
N2   N   0.667032174121437   0.905776159628338   0.111387955638955   1.0000000
N2   N   0.666600694700703   0.048100522281437   0.110239795437053   1.0000000
N2   N   0.666462696106839   0.190741126957919   0.113720458099701   1.0000000
N2   N   0.666341232333370   0.333660169583641   0.113263347511152   1.0000000
N2   N   0.668758497291300   0.477060319904200   0.102520073031091   1.0000000
N2   N   0.669303542333649   0.621483743162284   0.105786202474411   1.0000000
N2   N   0.668502669926087   0.764378239122950   0.113112985051316   1.0000000
N2   N   0.810213307106510   0.905903804469172   0.111630497394022   1.0000000
N2   N   0.809464001924753   0.048146925868230   0.109233931104686   1.0000000
N2   N   0.809225370737163   0.190776031180829   0.110293621339799   1.0000000
N2   N   0.809260274960073   0.333538705810166   0.113720458099701   1.0000000
N2   N   0.810146043024813   0.476450480451450   0.116527666538127   1.0000000
N2   N   0.810616015415212   0.619799224504645   0.115212335984426   1.0000000
N2   N   0.810800477694846   0.763313575814867   0.116300126667599   1.0000000
P2   P   0.484151111215613   0.515850909981378   0.144301542955382   1.0000000
P2   P   0.520051767753713   0.479949634163282   0.018928595641698   1.0000000


