data_1
_audit_creation_method   'vasp2cif'
_cell_length_a    17.52789999999977
_cell_length_b    17.52789999999977
_cell_length_c    15.0
_cell_angle_alpha    90.0
_cell_angle_beta    90.0
_cell_angle_gamma    119.99999999999916

_symmetry_space_group_name_H-M    'P 1'
loop_
_atom_site_label
_atom_site_type_symbol
_atom_site_fract_x
_atom_site_fract_y
_atom_site_fract_z
_atom_site_occupancy
B2   B   0.905457502219169   0.953286556330133   0.111010416325920   1.0000000
B2   B   0.905066444549640   0.095734556590792   0.111041932654854   1.0000000
B2   B   0.904873126183141   0.238351682377254   0.111066511474283   1.0000000
B2   B   0.904496852926051   0.380923248336385   0.110997220367906   1.0000000
B2   B   0.904573307079532   0.523770742472633   0.110987371053342   1.0000000
B2   B   0.906144490663303   0.667199884598799   0.111097264398427   1.0000000
B2   B   0.906191238090297   0.810716851884213   0.111049976535718   1.0000000
B2   B   0.048098299995832   0.952802894181245   0.111005759699642   1.0000000
B2   B   0.048072453745676   0.095690192147277   0.111008602704467   1.0000000
B2   B   0.047990911679841   0.238403712893688   0.110991103836696   1.0000000
B2   B   0.047785650876551   0.381012757262361   0.111009460145440   1.0000000
B2   B   0.047413263664066   0.523694710599179   0.111000606825133   1.0000000
B2   B   0.047671480870629   0.666601468685295   0.111026027597130   1.0000000
B2   B   0.047949750950538   0.809678976397955   0.111013443618438   1.0000000
B2   B   0.190086686437145   0.951798151220698   0.111021514417342   1.0000000
B2   B   0.190454036883755   0.094904621754072   0.111060897483021   1.0000000
B2   B   0.190875789311221   0.238210698555156   0.111000739569803   1.0000000
B2   B   0.191109297389802   0.381012419435984   0.110994131039268   1.0000000
B2   B   0.190399971528219   0.523852789599285   0.111071052964539   1.0000000
B2   B   0.189768917946673   0.666636835472782   0.111074212716362   1.0000000
B2   B   0.190146587206362   0.809310377881670   0.110999352971904   1.0000000
B2   B   0.332811116794892   0.951729816086885   0.111041896729610   1.0000000
B2   B   0.332225410244979   0.093290092997770   0.111117187740701   1.0000000
B2   B   0.332906741588854   0.235788239402067   0.111090552538269   1.0000000
B2   B   0.334436956360715   0.380830417270709   0.111082116271948   1.0000000
B2   B   0.333688817512667   0.524866828772522   0.111070917177074   1.0000000
B2   B   0.331738689778525   0.667175483455263   0.111088854549084   1.0000000
B2   B   0.332764616866605   0.809614535801529   0.111058063820245   1.0000000
B2   B   0.475834611360472   0.952446260085188   0.111007769086937   1.0000000
B2   B   0.475579871501066   0.094703144923806   0.111006728672732   1.0000000
B2   B   0.473956029171611   0.235716446422645   0.111041976465348   1.0000000
B2   B   0.473236707113760   0.667281040099187   0.110910611479622   1.0000000
B2   B   0.475649692179550   0.810028289286922   0.111029285044850   1.0000000
B2   B   0.618874576410193   0.952675637154332   0.111015648225657   1.0000000
B2   B   0.618782429674653   0.095213948950369   0.111005407428839   1.0000000
B2   B   0.618419464653972   0.237556861864285   0.110999793585756   1.0000000
B2   B   0.617020718933719   0.379988446691564   0.111003980690132   1.0000000
B2   B   0.621737603929655   0.668230887585430   0.110832929655662   1.0000000
B2   B   0.618954772011592   0.810034600806885   0.110944768382896   1.0000000
B2   B   0.762166386644224   0.952971713443132   0.110998181852126   1.0000000
B2   B   0.761938392834359   0.095572058772102   0.111062469013242   1.0000000
B2   B   0.761729188006160   0.238234182646788   0.111066568871217   1.0000000
B2   B   0.761097012935173   0.380805238651681   0.110997961033153   1.0000000
B2   B   0.762251566901676   0.525266046517695   0.111004431543287   1.0000000
B2   B   0.766116869975228   0.668274030283812   0.111014059943957   1.0000000
B2   B   0.762994497755208   0.810965160703110   0.110970456655896   1.0000000
C2   C   0.474790728966721   0.377452886825038   0.111237318952020   1.0000000
C2   C   0.475076229231048   0.520261181593832   0.111116647987811   1.0000000
C2   C   0.515765430906189   0.469447802209709   0.111414840715553   1.0000000
C2   C   0.521236018057521   0.613865393247241   0.110763050821938   1.0000000
N2   N   0.953168954330609   0.905713635479961   0.110998824788079   1.0000000
N2   N   0.953098622605539   0.048477635336285   0.111008618012797   1.0000000
N2   N   0.952910052409877   0.191019439397688   0.111028310918804   1.0000000
N2   N   0.952565740147415   0.333554814227598   0.111010072475951   1.0000000
N2   N   0.952073347200773   0.476046164063735   0.110954936430347   1.0000000
N2   N   0.952617769306282   0.618910866885545   0.111025865998940   1.0000000
N2   N   0.952974046096940   0.762327256780741   0.111062159749896   1.0000000
N2   N   0.095344692969280   0.904899758903800   0.110976094639838   1.0000000
N2   N   0.095839793246988   0.048221938012296   0.111005699881451   1.0000000
N2   N   0.096252993209737   0.191207761917724   0.110969232885923   1.0000000
N2   N   0.096249096379668   0.333731554475075   0.110965506271216   1.0000000
N2   N   0.095480161698048   0.476134072834094   0.111005939680204   1.0000000
N2   N   0.094934656060265   0.618802125970780   0.111015058805459   1.0000000
N2   N   0.095181825272436   0.761806703353336   0.110986445047925   1.0000000
N2   N   0.237844492154845   0.904554396363222   0.110990153990504   1.0000000
N2   N   0.237800471989295   0.047276849951744   0.111069557600965   1.0000000
N2   N   0.238984146958449   0.191009011554207   0.111036242718155   1.0000000
N2   N   0.240147294976087   0.333883810092629   0.110982915455414   1.0000000
N2   N   0.239247803763853   0.476211444562411   0.111038544960661   1.0000000
N2   N   0.237280076389187   0.618840118103727   0.111086066258456   1.0000000
N2   N   0.237730341552682   0.761763188601412   0.111027124306317   1.0000000
N2   N   0.380642778087111   0.904678288133753   0.111015313736586   1.0000000
N2   N   0.380521330795228   0.047122341378398   0.111050015991529   1.0000000
N2   N   0.380003600806227   0.189107066823388   0.111083288885016   1.0000000
N2   N   0.383976369852756   0.333318801570561   0.111119534032531   1.0000000
N2   N   0.383153711929430   0.476052349899615   0.111093220841757   1.0000000
N2   N   0.379228156126683   0.619189082914180   0.111032760926158   1.0000000
N2   N   0.380396067950242   0.761978958156775   0.111059185017934   1.0000000
N2   N   0.523506245956499   0.904990583566702   0.111004021587396   1.0000000
N2   N   0.523454679414821   0.047768584723408   0.110969386958607   1.0000000
N2   N   0.522887206227691   0.190538742372988   0.110973904455298   1.0000000
N2   N   0.519561040873104   0.332601181058331   0.111081811809346   1.0000000
N2   N   0.522894169259391   0.761784550777052   0.110939885667516   1.0000000
N2   N   0.666514119600153   0.904982408743299   0.110973447639701   1.0000000
N2   N   0.666506492019371   0.047843415928150   0.111010049598821   1.0000000
N2   N   0.666175075098324   0.190547754517594   0.111017962935371   1.0000000
N2   N   0.664929373027334   0.332588217244951   0.110981141321362   1.0000000
N2   N   0.668026882541977   0.471284095193848   0.110860676494417   1.0000000
N2   N   0.673739056576606   0.629976526589643   0.110877263366613   1.0000000
N2   N   0.667616084676149   0.763573293968429   0.110910489022849   1.0000000
N2   N   0.810273983140386   0.905881229957352   0.110968453770942   1.0000000
N2   N   0.809740637056091   0.048143012189262   0.111030391663260   1.0000000
N2   N   0.809518335747946   0.190818442993959   0.111071131400786   1.0000000
N2   N   0.808939355871236   0.333408124623362   0.111007637084077   1.0000000
N2   N   0.808661155569984   0.475888288199342   0.110971717551087   1.0000000
N2   N   0.811129232511212   0.619581103043587   0.111056757744961   1.0000000
N2   N   0.811043613177385   0.763612096460747   0.111014306057587   1.0000000


