data_1
_audit_creation_method   'vasp2cif'
_cell_length_a    17.52789999999977
_cell_length_b    17.52789999999977
_cell_length_c    15.0
_cell_angle_alpha    90.0
_cell_angle_beta    90.0
_cell_angle_gamma    119.99999999999916

_symmetry_space_group_name_H-M    'P 1'
loop_
_atom_site_label
_atom_site_type_symbol
_atom_site_fract_x
_atom_site_fract_y
_atom_site_fract_z
_atom_site_occupancy
B2   B   0.904813078598819   0.953293020563917   0.110950609444889   1.0000000
B2   B   0.906249577703578   0.097285009026103   0.110997643431715   1.0000000
B2   B   0.906224900288711   0.240059521877815   0.111077724660494   1.0000000
B2   B   0.905288087423481   0.382219001146046   0.111053256251159   1.0000000
B2   B   0.902922454409531   0.523685316313759   0.110993141477836   1.0000000
B2   B   0.899965766006021   0.665253683189118   0.110989978389663   1.0000000
B2   B   0.902480164583717   0.808841734822535   0.111021638322246   1.0000000
B2   B   0.046451128365905   0.951267394596122   0.110950443238967   1.0000000
B2   B   0.047766235843230   0.095187152938969   0.110957494219734   1.0000000
B2   B   0.049197435307612   0.239319401046520   0.111025957474265   1.0000000
B2   B   0.049510458811357   0.382234880481071   0.111023689256523   1.0000000
B2   B   0.048425959015151   0.524119929898938   0.111014176044043   1.0000000
B2   B   0.046347491893685   0.665647071439999   0.110955462808613   1.0000000
B2   B   0.045536433603304   0.807820839778200   0.110967772177503   1.0000000
B2   B   0.189157783168401   0.950328923172398   0.111058586949564   1.0000000
B2   B   0.189662477243318   0.093473012540321   0.111046513674546   1.0000000
B2   B   0.190568977967512   0.236860747374197   0.110978082159608   1.0000000
B2   B   0.193177109910512   0.381748042493382   0.110929845435323   1.0000000
B2   B   0.193525483991975   0.524264962373968   0.110977396057299   1.0000000
B2   B   0.192591098894879   0.665979906691659   0.111002549795106   1.0000000
B2   B   0.189886287927754   0.807940499555912   0.110972973455471   1.0000000
B2   B   0.332941871022888   0.950823610428886   0.111030717025396   1.0000000
B2   B   0.332213542998405   0.092670066863568   0.111129745701389   1.0000000
B2   B   0.332625864748650   0.234744343960016   0.111195855386787   1.0000000
B2   B   0.333885259420285   0.377444453683617   0.111012745055910   1.0000000
B2   B   0.338366928460466   0.525047848838197   0.110884618518191   1.0000000
B2   B   0.339896789056977   0.666692540889834   0.111036939184611   1.0000000
B2   B   0.334297323906397   0.808630189011048   0.111011658633787   1.0000000
B2   B   0.476797833328680   0.952905298669407   0.110941620993156   1.0000000
B2   B   0.476042469326999   0.094714044248931   0.110994509954813   1.0000000
B2   B   0.475102328925733   0.235823754099381   0.111118427986646   1.0000000
B2   B   0.491376934215353   0.671103385751398   0.110990387987841   1.0000000
B2   B   0.478237643666225   0.811111746402939   0.111027257846483   1.0000000
B2   B   0.620442957240655   0.955742742465635   0.110897241406273   1.0000000
B2   B   0.619734905426981   0.097022302822954   0.110915318237036   1.0000000
B2   B   0.619161316394774   0.238951857026407   0.111031682443174   1.0000000
B2   B   0.619104127621593   0.383606087772359   0.111047727533891   1.0000000
B2   B   0.606446996236674   0.671442715047522   0.110981268482663   1.0000000
B2   B   0.621847804104551   0.815985000075231   0.111012599076716   1.0000000
B2   B   0.763804316391073   0.955784096354893   0.110924730544123   1.0000000
B2   B   0.763324632806526   0.097861122574731   0.110938292227484   1.0000000
B2   B   0.762661570052068   0.239946508599022   0.111038170992814   1.0000000
B2   B   0.760933795288301   0.381934712713805   0.111047031997216   1.0000000
B2   B   0.754782588654834   0.521650258069727   0.110998658423823   1.0000000
B2   B   0.754680371142390   0.665737437257612   0.110994173369845   1.0000000
B2   B   0.761198835497391   0.811420067741274   0.111053024800498   1.0000000
C2   C   0.475957306680712   0.374979079412494   0.111412255538463   1.0000000
C2   C   0.469291671477805   0.505019751437275   0.111897688012825   1.0000000
C2   C   0.510455723900827   0.463803433489156   0.111777681787370   1.0000000
N2   N   0.951408815938731   0.904652946822654   0.110949350175308   1.0000000
N2   N   0.952903136978577   0.048667221173277   0.110936913054798   1.0000000
N2   N   0.954029591018603   0.192388602546250   0.111037432452029   1.0000000
N2   N   0.954036608597065   0.335040749047749   0.111055013173063   1.0000000
N2   N   0.952991626251386   0.477207576711844   0.111006136910031   1.0000000
N2   N   0.950738976128972   0.619114078458289   0.110954866639543   1.0000000
N2   N   0.950229043270606   0.761205040645465   0.110984908160188   1.0000000
N2   N   0.093875312786106   0.903273195472058   0.110964842476942   1.0000000
N2   N   0.094536276623886   0.046652464067613   0.110939982529297   1.0000000
N2   N   0.095598469136343   0.190389875339489   0.110966263599326   1.0000000
N2   N   0.097479502371754   0.334576139420924   0.110981672076498   1.0000000
N2   N   0.097578970946477   0.477338045644607   0.110988198841368   1.0000000
N2   N   0.096463184581835   0.619216357319688   0.110972126365623   1.0000000
N2   N   0.094441920796405   0.760939738238295   0.110939557179942   1.0000000
N2   N   0.237431372573673   0.903095878703564   0.111005091379541   1.0000000
N2   N   0.236788164578549   0.045329843896117   0.111091610642970   1.0000000
N2   N   0.237345243140196   0.188543333497927   0.111042651200450   1.0000000
N2   N   0.238880402016961   0.331846415280286   0.110914349154021   1.0000000
N2   N   0.241727174011752   0.477206226210558   0.110896971075492   1.0000000
N2   N   0.242771649658758   0.619540824758023   0.110996551141850   1.0000000
N2   N   0.238920767641500   0.761127090044521   0.110993357685536   1.0000000
N2   N   0.381304566819256   0.903888370442930   0.110971930925626   1.0000000
N2   N   0.380359279694560   0.045676943886437   0.111038980613749   1.0000000
N2   N   0.379419507642130   0.186879348428615   0.111165464344382   1.0000000
N2   N   0.381296434878292   0.329134867981544   0.111291840394639   1.0000000
N2   N   0.380175791104742   0.473215133929546   0.110852363273961   1.0000000
N2   N   0.392011883333646   0.620815785355613   0.110972530825782   1.0000000
N2   N   0.383270538100174   0.761907226566498   0.111042403871403   1.0000000
N2   N   0.525142911795574   0.906455975772715   0.110924776845932   1.0000000
N2   N   0.524223396385800   0.047860424605319   0.110900143272681   1.0000000
N2   N   0.523466601959828   0.189219194547319   0.111036082798875   1.0000000
N2   N   0.520971591032511   0.329340046613547   0.111083869762228   1.0000000
N2   N   0.527191319109643   0.765618086594484   0.111029502093866   1.0000000
N2   N   0.669056556320813   0.909987149188564   0.110900293988018   1.0000000
N2   N   0.668037452293974   0.050381704826246   0.110869691512845   1.0000000
N2   N   0.667323930456012   0.191593580809940   0.110968420917009   1.0000000
N2   N   0.665778699377001   0.332867134125026   0.111052201765548   1.0000000
N2   N   0.663223089791999   0.474575410294378   0.110970070546643   1.0000000
N2   N   0.660625799137857   0.632347119223139   0.110913281480512   1.0000000
N2   N   0.666631960738871   0.767409719913186   0.111040046581038   1.0000000
N2   N   0.810106542590652   0.907181054739593   0.110965863111191   1.0000000
N2   N   0.811334457368067   0.050661238144461   0.110933993631730   1.0000000
N2   N   0.810987042679318   0.192692062362124   0.111018436361951   1.0000000
N2   N   0.810108198129135   0.334658046206732   0.111044114056493   1.0000000
N2   N   0.808347587970842   0.476732071878388   0.110987540671069   1.0000000
N2   N   0.804539517441359   0.619082385136194   0.110987029973285   1.0000000
N2   N   0.807312990604135   0.762785040864987   0.111043151993989   1.0000000


