data_1
_audit_creation_method   'vasp2cif'
_cell_length_a    14.93631414619966
_cell_length_b    14.936314146199727
_cell_length_c    13.341276283792837
_cell_angle_alpha    90.0
_cell_angle_beta    90.0
_cell_angle_gamma    119.99999999999984

_symmetry_space_group_name_H-M    'P 1'
loop_
_atom_site_label
_atom_site_type_symbol
_atom_site_fract_x
_atom_site_fract_y
_atom_site_fract_z
_atom_site_occupancy
C2   C   0.442032521924605   0.384966265523133   0.375000000000000   1.0000000
C2   C   0.544864420715475   0.434812468379109   0.375000000000000   1.0000000
N2   N   0.111082637257995   0.055596925099671   0.124334728042251   1.0000000
N2   N   0.611125124535282   0.555581951639372   0.121243955642727   1.0000000
N2   N   0.444442458582825   0.055608805876439   0.122997001606368   1.0000000
N2   N   0.944420411090784   0.555578564282480   0.122864494434977   1.0000000
N2   N   0.777797029968219   0.055571990998509   0.124191808424626   1.0000000
N2   N   0.111096896147122   0.722259044466001   0.625570916935031   1.0000000
N2   N   0.444467076523599   0.722243616021420   0.625815287023602   1.0000000
N2   N   0.277724289334547   0.222232361516045   0.627012088226359   1.0000000
N2   N   0.777830454815213   0.722333279535290   0.627608190890337   1.0000000
N2   N   0.611118173074965   0.222257845257456   0.628117760290128   1.0000000
N2   N   0.944465843329696   0.222224604782837   0.625558591285927   1.0000000
N2   N   0.277785985274556   0.722261401973507   0.124754387785476   1.0000000
N2   N   0.111080885400061   0.222226702656959   0.124567321814367   1.0000000
N2   N   0.444412251749497   0.222258882999981   0.121611524117774   1.0000000
N2   N   0.611139004516037   0.722237785052018   0.123058136333297   1.0000000
N2   N   0.944466324021227   0.722319067000023   0.123307065169967   1.0000000
N2   N   0.777823386805315   0.222222040325588   0.122807010361686   1.0000000
N2   N   0.111106257222443   0.888958472187932   0.625679666068436   1.0000000
N2   N   0.444460542798665   0.888942398130556   0.625818721051137   1.0000000
N2   N   0.277765577524550   0.388879339418000   0.626472311989239   1.0000000
N2   N   0.611191401360198   0.388972900165651   0.628975115767513   1.0000000
N2   N   0.777800831571671   0.888938225004583   0.625898718986598   1.0000000
N2   N   0.944473328830637   0.388890579832869   0.626627639184450   1.0000000
N2   N   0.111116143364341   0.388896085967536   0.124549976242500   1.0000000
N2   N   0.277774150202841   0.888943662853669   0.124247781112618   1.0000000
N2   N   0.611128733778164   0.888919596956574   0.124030870653636   1.0000000
N2   N   0.444382787590668   0.388866333714006   0.121134088290179   1.0000000
N2   N   0.944466215944819   0.888976563238363   0.124240413246635   1.0000000
N2   N   0.777850014286338   0.388824388302562   0.120642109897004   1.0000000
N2   N   0.277784291786604   0.555565739775700   0.625678706120304   1.0000000
N2   N   0.111082637257995   0.055596925099671   0.625665271957787   1.0000000
N2   N   0.611125124535281   0.555581951639372   0.628756044357269   1.0000000
N2   N   0.444442458582825   0.055608805876439   0.627002998393699   1.0000000
N2   N   0.944420411090784   0.555578564282480   0.627135505565050   1.0000000
N2   N   0.111102050326821   0.555578327463476   0.124416672583732   1.0000000
N2   N   0.777797029968219   0.055571990998509   0.625808191575449   1.0000000
N2   N   0.277750580395862   0.055602952594968   0.123267615464694   1.0000000
N2   N   0.444460018686760   0.555552068505215   0.122801403569260   1.0000000
N2   N   0.777847545318225   0.555761046501026   0.120381451364845   1.0000000
N2   N   0.611131817284370   0.055602145816027   0.123271077597305   1.0000000
N2   N   0.444460018686760   0.555552068505215   0.627198596430727   1.0000000
N2   N   0.944444860283870   0.055588019530687   0.124854270346205   1.0000000
N2   N   0.277785985274556   0.722261401973507   0.625245612214477   1.0000000
N2   N   0.111080885400061   0.222226702656959   0.625432678185575   1.0000000
N2   N   0.444412251749497   0.222258882999981   0.628388475882187   1.0000000
N2   N   0.611139004516037   0.722237785052018   0.626941863666648   1.0000000
N2   N   0.944466324021227   0.722319067000023   0.626692934830029   1.0000000
N2   N   0.777823386805315   0.222222040325588   0.627192989638276   1.0000000
N2   N   0.111096896147122   0.722259044466001   0.124429083065003   1.0000000
N2   N   0.444467076523599   0.722243616021420   0.124184712976351   1.0000000
N2   N   0.277724289334547   0.222232361516045   0.122987911773595   1.0000000
N2   N   0.777830454815213   0.722333279535290   0.122391809109717   1.0000000
N2   N   0.611118173074965   0.222257845257457   0.121882239709930   1.0000000
N2   N   0.944465843329696   0.222224604782837   0.124441408714097   1.0000000
N2   N   0.111116143364341   0.388896085967536   0.625450023757585   1.0000000
N2   N   0.277774150202841   0.888943662853669   0.625752218887379   1.0000000
N2   N   0.611128733778164   0.888919596956574   0.625969129346387   1.0000000
N2   N   0.444382787590668   0.388866333714006   0.628865911709774   1.0000000
N2   N   0.944466215944819   0.888976563238363   0.625759586753352   1.0000000
N2   N   0.111106257222445   0.888958472187932   0.124320333931541   1.0000000
N2   N   0.777850014286338   0.388824388302562   0.629357890103038   1.0000000
N2   N   0.444460542798665   0.888942398130556   0.124181278948834   1.0000000
N2   N   0.277765577524550   0.388879339418000   0.123527688010720   1.0000000
N2   N   0.277784291786604   0.555565739775700   0.124321293879726   1.0000000
N2   N   0.611191401360198   0.388972900165651   0.121024884232475   1.0000000
N2   N   0.777800831571671   0.888938225004583   0.124101281013387   1.0000000
N2   N   0.944473328830637   0.388890579832869   0.123372360815524   1.0000000
N2   N   0.111102050326821   0.555578327463476   0.625583327416316   1.0000000
N2   N   0.277750580395862   0.055602952594968   0.626732384535313   1.0000000
N2   N   0.777847545318225   0.555761046501026   0.629618548635163   1.0000000
N2   N   0.611131817284370   0.055602145816027   0.626728922402569   1.0000000
N2   N   0.944444860283870   0.055588019530687   0.625145729653791   1.0000000
N2   N   0.052962505521196   0.109780708316771   0.375000000000000   1.0000000
N2   N   0.557201714780578   0.608394843705845   0.375000000000000   1.0000000
N2   N   0.386746919664732   0.110949996035362   0.375000000000000   1.0000000
N2   N   0.892503953680467   0.609720105437771   0.375000000000000   1.0000000
N2   N   0.722323314265965   0.116302688154290   0.375000000000000   1.0000000
N2   N   0.055441030752047   0.777717061328323   0.875000000000000   1.0000000
N2   N   0.388765306591053   0.777715470822815   0.875000000000000   1.0000000
N2   N   0.222124194951842   0.277736860591791   0.875000000000000   1.0000000
N2   N   0.722094340121834   0.777725810247614   0.875000000000000   1.0000000
N2   N   0.555452856414783   0.277713722289439   0.875000000000000   1.0000000
N2   N   0.888774318326985   0.277734840382446   0.875000000000000   1.0000000
N2   N   0.225728467076932   0.779426650162909   0.375000000000000   1.0000000
N2   N   0.053549265976553   0.277890226995862   0.375000000000000   1.0000000
N2   N   0.383889058726916   0.277289492542024   0.375000000000000   1.0000000
N2   N   0.557256683105144   0.777257777344211   0.375000000000000   1.0000000
N2   N   0.888521430600680   0.774490397710389   0.375000000000000   1.0000000
N2   N   0.722836847372548   0.291067367661273   0.375000000000000   1.0000000
N2   N   0.055437607904668   0.944386446489555   0.875000000000000   1.0000000
N2   N   0.388765144869205   0.944366180474031   0.875000000000000   1.0000000
N2   N   0.222124744993847   0.444406741801823   0.875000000000000   1.0000000
N2   N   0.555457527305014   0.444400869445838   0.875000000000000   1.0000000
N2   N   0.722088944224542   0.944384559611283   0.875000000000000   1.0000000
N2   N   0.888795981830916   0.444403108735565   0.875000000000000   1.0000000
N2   N   0.057112489267429   0.445954452085576   0.375000000000000   1.0000000
N2   N   0.222136885116099   0.944046318222229   0.375000000000000   1.0000000
N2   N   0.557134568018579   0.946429147360937   0.375000000000000   1.0000000
N2   N   0.387490087383231   0.440298138817289   0.375000000000000   1.0000000
N2   N   0.887574161940819   0.942613839731694   0.375000000000000   1.0000000
N2   N   0.222111789095500   0.611059268756899   0.875000000000000   1.0000000
N2   N   0.055441084903620   0.111058016819301   0.875000000000000   1.0000000
N2   N   0.555434394798975   0.611069087527562   0.875000000000000   1.0000000
N2   N   0.388779882500128   0.111038287620078   0.875000000000000   1.0000000
N2   N   0.888792988901594   0.611058574711107   0.875000000000000   1.0000000
N2   N   0.061606563943036   0.613856190498233   0.375000000000000   1.0000000
N2   N   0.722084849469186   0.111043697097411   0.875000000000000   1.0000000
N2   N   0.219765285257835   0.109851627585032   0.375000000000000   1.0000000
N2   N   0.391049680532385   0.609694605357242   0.375000000000000   1.0000000
N2   N   0.723713037301473   0.599510814572071   0.375000000000000   1.0000000
N2   N   0.556546034122840   0.115326572419531   0.375000000000000   1.0000000
N2   N   0.388775433512211   0.611065792481183   0.875000000000000   1.0000000
N2   N   0.887349491845487   0.111628669709382   0.375000000000000   1.0000000
N2   N   0.222104839766242   0.777714203761598   0.875000000000000   1.0000000
N2   N   0.055448269757466   0.277737868443061   0.875000000000000   1.0000000
N2   N   0.388792559385321   0.277728215149579   0.875000000000000   1.0000000
N2   N   0.555425150171742   0.777721784843177   0.875000000000000   1.0000000
N2   N   0.888771167984374   0.777719669384777   0.875000000000000   1.0000000
N2   N   0.722098900781276   0.277705285236638   0.875000000000000   1.0000000
N2   N   0.057083183662299   0.777359047548501   0.375000000000000   1.0000000
N2   N   0.391691802447665   0.778496329951602   0.375000000000000   1.0000000
N2   N   0.218515200300285   0.276212555064762   0.375000000000000   1.0000000
N2   N   0.722710649455518   0.773123722853179   0.375000000000000   1.0000000
N2   N   0.551038934500797   0.280041402781561   0.375000000000000   1.0000000
N2   N   0.887847874819199   0.280597378432961   0.375000000000000   1.0000000
N2   N   0.055453371362050   0.444402614157083   0.875000000000000   1.0000000
N2   N   0.222107325979085   0.944377336005797   0.875000000000000   1.0000000
N2   N   0.555415747042251   0.944369164171754   0.875000000000000   1.0000000
N2   N   0.388793299201698   0.444410127525790   0.875000000000000   1.0000000
N2   N   0.888766106640703   0.944390583669323   0.875000000000000   1.0000000
N2   N   0.054167992810837   0.942750972215998   0.375000000000000   1.0000000
N2   N   0.722126096124292   0.444393328945047   0.875000000000000   1.0000000
N2   N   0.390745975955371   0.946165054783577   0.375000000000000   1.0000000
N2   N   0.222702944162277   0.444217122497457   0.375000000000000   1.0000000
N2   N   0.225862967970300   0.612108907234286   0.375000000000000   1.0000000
N2   N   0.722420531907890   0.944598891928030   0.375000000000000   1.0000000
N2   N   0.892322414367866   0.449229516285353   0.375000000000000   1.0000000
N2   N   0.055451732556702   0.611058433834863   0.875000000000000   1.0000000
N2   N   0.222115172572731   0.111053611373091   0.875000000000000   1.0000000
N2   N   0.722100305079674   0.611062458045336   0.875000000000000   1.0000000
N2   N   0.555424347126954   0.111026255497088   0.875000000000000   1.0000000
N2   N   0.888766277767756   0.111061098201674   0.875000000000000   1.0000000
B2   B   0.108968281102668   0.054056212519501   0.375000000000000   1.0000000
B2   B   0.612643254015225   0.549213976057861   0.375000000000000   1.0000000
B2   B   0.445736845733770   0.058820470286318   0.375000000000000   1.0000000
B2   B   0.950784845482921   0.558574474968293   0.375000000000000   1.0000000
B2   B   0.776211598867517   0.057837914992513   0.375000000000000   1.0000000
B2   B   0.110953387903609   0.722125988739873   0.875000000000000   1.0000000
B2   B   0.444324407054403   0.722153850769732   0.875000000000000   1.0000000
B2   B   0.277775258281439   0.222215819586770   0.875000000000000   1.0000000
B2   B   0.777607326812791   0.722054489436607   0.875000000000000   1.0000000
B2   B   0.611000293550940   0.222234141403932   0.875000000000000   1.0000000
B2   B   0.944290387491726   0.222210773187896   0.875000000000000   1.0000000
B2   B   0.280810616218162   0.723325766084338   0.375000000000000   1.0000000
B2   B   0.107917807544996   0.221175604504164   0.375000000000000   1.0000000
B2   B   0.445546040715738   0.224544097637396   0.375000000000000   1.0000000
B2   B   0.611898516027214   0.719448471708745   0.375000000000000   1.0000000
B2   B   0.944721508707531   0.718976469427202   0.375000000000000   1.0000000
B2   B   0.775566221300071   0.231439746421604   0.375000000000000   1.0000000
B2   B   0.110986508815305   0.888794218745768   0.875000000000000   1.0000000
B2   B   0.444321316502174   0.888849489730098   0.875000000000000   1.0000000
B2   B   0.277740466261356   0.388864712095671   0.875000000000000   1.0000000
B2   B   0.611043303164284   0.388841975289903   0.875000000000000   1.0000000
B2   B   0.777621751308652   0.888790205568264   0.875000000000000   1.0000000
B2   B   0.944264720808948   0.388866821138004   0.875000000000000   1.0000000
B2   B   0.110984702616617   0.389329696849867   0.375000000000000   1.0000000
B2   B   0.279951074299352   0.890472792924814   0.375000000000000   1.0000000
B2   B   0.611630414856319   0.889275566208891   0.375000000000000   1.0000000
B2   B   0.942542627378690   0.885569078360821   0.375000000000000   1.0000000
B2   B   0.778791258235481   0.411199922071478   0.375000000000000   1.0000000
B2   B   0.277672901458173   0.555508545127053   0.875000000000000   1.0000000
B2   B   0.111032433608849   0.055506815683851   0.875000000000000   1.0000000
B2   B   0.611005873709602   0.555423730913660   0.875000000000000   1.0000000
B2   B   0.444371623928785   0.055553957496106   0.875000000000000   1.0000000
B2   B   0.944241672258499   0.555453870777493   0.875000000000000   1.0000000
B2   B   0.114706559136942   0.556920831295818   0.375000000000000   1.0000000
B2   B   0.777612696501097   0.055524388255174   0.875000000000000   1.0000000
B2   B   0.277099067791785   0.055406632388676   0.375000000000000   1.0000000
B2   B   0.446544040944719   0.552744179666278   0.375000000000000   1.0000000
B2   B   0.779304231504191   0.534015668857064   0.375000000000000   1.0000000
B2   B   0.611258670179037   0.059544953742368   0.375000000000000   1.0000000
B2   B   0.444376412938724   0.555485230232850   0.875000000000000   1.0000000
B2   B   0.941833959702428   0.054334226192483   0.375000000000000   1.0000000
B2   B   0.277643355233829   0.722160654520668   0.875000000000000   1.0000000
B2   B   0.111030606427820   0.222200580711086   0.875000000000000   1.0000000
B2   B   0.444446382659769   0.222231961542928   0.875000000000000   1.0000000
B2   B   0.610973861084529   0.722106123735702   0.875000000000000   1.0000000
B2   B   0.944252609173934   0.722060544603677   0.875000000000000   1.0000000
B2   B   0.777599542139435   0.222225968100543   0.875000000000000   1.0000000
B2   B   0.114686273176572   0.723899441590698   0.375000000000000   1.0000000
B2   B   0.446427072844143   0.721487315719693   0.375000000000000   1.0000000
B2   B   0.274604991423654   0.221233791284317   0.375000000000000   1.0000000
B2   B   0.776737669332608   0.712204663545088   0.375000000000000   1.0000000
B2   B   0.609771357364068   0.231735629602600   0.375000000000000   1.0000000
B2   B   0.941804741527729   0.223574646451389   0.375000000000000   1.0000000
B2   B   0.110989252773313   0.388862825566444   0.875000000000000   1.0000000
B2   B   0.277669674074270   0.888836566855806   0.875000000000000   1.0000000
B2   B   0.610961258319766   0.888827511988503   0.875000000000000   1.0000000
B2   B   0.444452458289215   0.388859395454229   0.875000000000000   1.0000000
B2   B   0.944299283773096   0.888771125246593   0.875000000000000   1.0000000
B2   B   0.111017051139363   0.887928036909536   0.375000000000000   1.0000000
B2   B   0.777603308715075   0.388850356558234   0.875000000000000   1.0000000
B2   B   0.446331493114119   0.890479792275026   0.375000000000000   1.0000000
B2   B   0.276509089437444   0.386978774278382   0.375000000000000   1.0000000
B2   B   0.280128310768477   0.555460087360801   0.375000000000000   1.0000000
B2   B   0.776555236374475   0.885683182863175   0.375000000000000   1.0000000
B2   B   0.944477489199522   0.392072451832409   0.375000000000000   1.0000000
B2   B   0.110954424903719   0.555502580333116   0.875000000000000   1.0000000
B2   B   0.277736366491048   0.055533920162854   0.875000000000000   1.0000000
B2   B   0.777589369351699   0.555399145880994   0.875000000000000   1.0000000
B2   B   0.610966556232881   0.055545931204229   0.875000000000000   1.0000000
B2   B   0.944310473225301   0.055503317370643   0.875000000000000   1.0000000
B2   B   0.055559267400266   0.111138028733297   0.124978155821686   1.0000000
B2   B   0.555730010544790   0.610908327430531   0.122890153162393   1.0000000
B2   B   0.389108601536706   0.111476554791218   0.123313105311844   1.0000000
B2   B   0.888559534599516   0.610930268226926   0.123191904909916   1.0000000
B2   B   0.722252420375090   0.111332186093563   0.123995417982225   1.0000000
B2   B   0.055390971971202   0.777734012915313   0.625409782049833   1.0000000
B2   B   0.388941833334631   0.777860961496726   0.625182972050417   1.0000000
B2   B   0.222296789374537   0.277770237844881   0.625933121049015   1.0000000
B2   B   0.722289295730551   0.777684715659547   0.626347732388926   1.0000000
B2   B   0.555792950380509   0.278180440544504   0.626438424114678   1.0000000
B2   B   0.888760766783965   0.277840900756904   0.625884156716548   1.0000000
B2   B   0.222140281241632   0.777823789686241   0.124957905145010   1.0000000
B2   B   0.055504122671930   0.277782149635874   0.124952729468204   1.0000000
B2   B   0.389163392400969   0.277925101352587   0.122645403275677   1.0000000
B2   B   0.555655146048440   0.777754902715121   0.124174715705033   1.0000000
B2   B   0.888806251208771   0.777678000818709   0.123849203254455   1.0000000
B2   B   0.722196889140656   0.278042975312193   0.122882371208682   1.0000000
B2   B   0.055529892353348   0.944469572267495   0.625277329421435   1.0000000
B2   B   0.388994034407065   0.944709273419835   0.625696286912468   1.0000000
B2   B   0.222235632041435   0.444395634158471   0.625472261623021   1.0000000
B2   B   0.555769226804931   0.444268635865628   0.627032452208603   1.0000000
B2   B   0.722270738658804   0.944510325314416   0.625472622921793   1.0000000
B2   B   0.888528794983505   0.444340488512083   0.626709915696856   1.0000000
B2   B   0.055366703549767   0.444401081132763   0.124647977854176   1.0000000
B2   B   0.222249512431509   0.944589553140232   0.124410569287813   1.0000000
B2   B   0.555656021393878   0.944656991634661   0.124288863796280   1.0000000
B2   B   0.389108775883062   0.444316888536289   0.122925124344635   1.0000000
B2   B   0.888886377315630   0.944440696508746   0.124804427457484   1.0000000
B2   B   0.722210556444196   0.444463499094446   0.123656315409834   1.0000000
B2   B   0.222136921506067   0.611084469741172   0.625044342959555   1.0000000
B2   B   0.055559267400266   0.111138028733297   0.625021844178430   1.0000000
B2   B   0.555730010544790   0.610908327430531   0.627109846837668   1.0000000
B2   B   0.389108601536706   0.111476554791220   0.626686894688254   1.0000000
B2   B   0.888559534599516   0.610930268226926   0.626808095090122   1.0000000
B2   B   0.055246256401975   0.611002529324733   0.124531683134497   1.0000000
B2   B   0.722252420375090   0.111332186093563   0.626004582017763   1.0000000
B2   B   0.222313120746687   0.111223116071265   0.123962860434633   1.0000000
B2   B   0.388990070812573   0.611039937510596   0.124179868627581   1.0000000
B2   B   0.722245299265320   0.610892509521583   0.122237623133262   1.0000000
B2   B   0.555701054470945   0.111529706858477   0.123495172242923   1.0000000
B2   B   0.388990070812573   0.611039937510596   0.625820131372495   1.0000000
B2   B   0.888863740853240   0.111171754123001   0.124929739249748   1.0000000
B2   B   0.222140281241632   0.777823789686241   0.625042094854971   1.0000000
B2   B   0.055504122671930   0.277782149635874   0.625047270531791   1.0000000
B2   B   0.389163392400969   0.277925101352587   0.627354596724346   1.0000000
B2   B   0.555655146048440   0.777754902715121   0.625825284294917   1.0000000
B2   B   0.888806251208771   0.777678000818709   0.626150796745539   1.0000000
B2   B   0.722196889140656   0.278042975312193   0.627117628791303   1.0000000
B2   B   0.055390971971202   0.777734012915313   0.124590217950184   1.0000000
B2   B   0.388941833334631   0.777860961496726   0.124817027949475   1.0000000
B2   B   0.222296789374537   0.277770237844881   0.124066878950901   1.0000000
B2   B   0.722289295730551   0.777684715659547   0.123652267611038   1.0000000
B2   B   0.555792950380509   0.278180440544504   0.123561575885353   1.0000000
B2   B   0.888760766783965   0.277840900756904   0.124115843283428   1.0000000
B2   B   0.055366703549767   0.444401081132763   0.625352022145839   1.0000000
B2   B   0.222249512431509   0.944589553140232   0.625589430712157   1.0000000
B2   B   0.555656021393878   0.944656991634661   0.625711136203700   1.0000000
B2   B   0.389108775883062   0.444316888536289   0.627074875655292   1.0000000
B2   B   0.888886377315630   0.944440696508746   0.625195572542530   1.0000000
B2   B   0.055529892353348   0.944469572267495   0.124722670578532   1.0000000
B2   B   0.722210556444196   0.444463499094446   0.626343684590139   1.0000000
B2   B   0.388994034407065   0.944709273419834   0.124303713087533   1.0000000
B2   B   0.222235632041435   0.444395634158471   0.124527738376911   1.0000000
B2   B   0.222136921506067   0.611084469741172   0.124955657040397   1.0000000
B2   B   0.555769226804931   0.444268635865628   0.122967547791390   1.0000000
B2   B   0.722270738658804   0.944510325314416   0.124527377078231   1.0000000
B2   B   0.888528794983505   0.444340488512083   0.123290084303160   1.0000000
B2   B   0.055246256401975   0.611002529324733   0.625468316865487   1.0000000
B2   B   0.222313120746687   0.111223116071265   0.626037139565346   1.0000000
B2   B   0.722245299265320   0.610892509521583   0.627762376866716   1.0000000
B2   B   0.555701054470945   0.111529706858477   0.626504827757105   1.0000000
B2   B   0.888863740853240   0.111171754123001   0.625070260750251   1.0000000


