data_1
_audit_creation_method   'vasp2cif'
_cell_length_a    17.52789999999977
_cell_length_b    17.52789999999977
_cell_length_c    15.0
_cell_angle_alpha    90.0
_cell_angle_beta    90.0
_cell_angle_gamma    119.99999999999916

_symmetry_space_group_name_H-M    'P 1'
loop_
_atom_site_label
_atom_site_type_symbol
_atom_site_fract_x
_atom_site_fract_y
_atom_site_fract_z
_atom_site_occupancy
B2   B   0.903984478670790   0.951381221991948   0.111007633156082   1.0000000
B2   B   0.905284659255951   0.094717361940046   0.111036724834513   1.0000000
B2   B   0.905789624819982   0.237606721207505   0.111053524522302   1.0000000
B2   B   0.905787178228544   0.380449133409337   0.111008541715262   1.0000000
B2   B   0.904622473254015   0.523204846078070   0.110989788637399   1.0000000
B2   B   0.902753460790982   0.665583378206349   0.111044129807537   1.0000000
B2   B   0.902307304246393   0.807732078915609   0.111019238360844   1.0000000
B2   B   0.047279693546613   0.952722327649391   0.110979886503571   1.0000000
B2   B   0.048620799204055   0.096017542525206   0.111007633156082   1.0000000
B2   B   0.048939839746149   0.238589987260834   0.111024100173635   1.0000000
B2   B   0.048507937926170   0.381191396311233   0.111025307168981   1.0000000
B2   B   0.047419048987248   0.524050900598709   0.111006926226197   1.0000000
B2   B   0.046437858236064   0.666839188347648   0.111014813086428   1.0000000
B2   B   0.046407112927785   0.809612794357730   0.110984128961388   1.0000000
B2   B   0.190389226838274   0.953594908268212   0.110984128961388   1.0000000
B2   B   0.192269942280394   0.097694716949603   0.111019238360844   1.0000000
B2   B   0.193190431326083   0.240816498231293   0.110975672484505   1.0000000
B2   B   0.191900075779705   0.382332908468606   0.110938549536273   1.0000000
B2   B   0.190049759963769   0.524781724165643   0.111003021430870   1.0000000
B2   B   0.189264548476829   0.667559602399468   0.111053918185347   1.0000000
B2   B   0.189582980620551   0.810419040575453   0.111003967247317   1.0000000
B2   B   0.333162832849351   0.953564162959939   0.111014813086428   1.0000000
B2   B   0.334418642990649   0.097248560405015   0.111044129807537   1.0000000
B2   B   0.337717388367554   0.243194365236951   0.111061794248033   1.0000000
B2   B   0.337843353430802   0.385667013350518   0.110892019037666   1.0000000
B2   B   0.332683220839292   0.527258174599680   0.111040753401772   1.0000000
B2   B   0.331543907284584   0.668458113912414   0.111159800447263   1.0000000
B2   B   0.332442418797530   0.810737472719175   0.111053918185347   1.0000000
B2   B   0.475951120598288   0.952582972208756   0.111006926226197   1.0000000
B2   B   0.476797175118928   0.095379547941981   0.110989788637399   1.0000000
B2   B   0.478283144043035   0.238472620119276   0.111065642882654   1.0000000
B2   B   0.484138449712497   0.383178396900270   0.110943124696961   1.0000000
B2   B   0.472743846597318   0.667318800357706   0.111040753401772   1.0000000
B2   B   0.475220297031355   0.809952261232234   0.111003021430870   1.0000000
B2   B   0.618810624884770   0.951494083269834   0.111025307168981   1.0000000
B2   B   0.619552887786667   0.094214842967453   0.111008541715262   1.0000000
B2   B   0.620530592467216   0.236580019725194   0.111000013472643   1.0000000
B2   B   0.621988566972939   0.378013454223064   0.111014258311526   1.0000000
B2   B   0.616823624295734   0.515863571484501   0.110943124696961   1.0000000
B2   B   0.614335007845485   0.662158667766196   0.110892019037666   1.0000000
B2   B   0.617669112727397   0.808101945416299   0.110938549536273   1.0000000
B2   B   0.761412033935170   0.951062181449854   0.111024100173635   1.0000000
B2   B   0.762395299988498   0.094212396376014   0.111053524522302   1.0000000
B2   B   0.763018670274250   0.236983350921753   0.111023719555009   1.0000000
B2   B   0.763422001470810   0.379471428728788   0.111000013472643   1.0000000
B2   B   0.761529401076728   0.521718877153964   0.111065642882654   1.0000000
B2   B   0.756807655959053   0.662284632829444   0.111061794248033   1.0000000
B2   B   0.759185522964711   0.806811589869920   0.110975672484505   1.0000000
N2   N   0.951301016515472   0.903683176914905   0.110976459411123   1.0000000
N2   N   0.952828088531914   0.047173313386091   0.111007165354250   1.0000000
N2   N   0.953498336699299   0.190178288491097   0.111024289418133   1.0000000
N2   N   0.953433265254219   0.332975548071412   0.111015636699290   1.0000000
N2   N   0.952487172622981   0.475841984647407   0.110965599675238   1.0000000
N2   N   0.951144468505465   0.618587718232148   0.111000161216537   1.0000000
N2   N   0.950696264392365   0.761036046478667   0.111009331732376   1.0000000
N2   N   0.094794892590251   0.905206509327748   0.110957570850468   1.0000000
N2   N   0.096318225003094   0.048700385402534   0.110976459411123   1.0000000
N2   N   0.097290392492321   0.191796117396651   0.110991501974021   1.0000000
N2   N   0.096568619840449   0.333953166332087   0.110992873817782   1.0000000
N2   N   0.095187958422465   0.476540811401592   0.111006990371905   1.0000000
N2   N   0.094224499412158   0.619410834793904   0.111003380735023   1.0000000
N2   N   0.094184726597802   0.762262610131892   0.110980413641725   1.0000000
N2   N   0.237738791786114   0.905816675320196   0.110980413641725   1.0000000
N2   N   0.238965355439339   0.049305137525641   0.111009331732376   1.0000000
N2   N   0.241553745571627   0.194061027016324   0.111013181050051   1.0000000
N2   N   0.241571260238432   0.336664780360050   0.110887060663272   1.0000000
N2   N   0.237997042188666   0.477446835189515   0.110904822950951   1.0000000
N2   N   0.236728915955719   0.620042846093722   0.111055121385841   1.0000000
N2   N   0.237139685193211   0.762861716724795   0.111035747097344   1.0000000
N2   N   0.380590567124094   0.905776902505840   0.111003380735023   1.0000000
N2   N   0.381413683685851   0.048856933412541   0.111000161216537   1.0000000
N2   N   0.383057040379845   0.193033757462407   0.111058639070658   1.0000000
N2   N   0.388140116447910   0.341056266177416   0.111038344304804   1.0000000
N2   N   0.380270680118342   0.480975037112640   0.110720060998241   1.0000000
N2   N   0.378693271947391   0.621308129970607   0.111285376207613   1.0000000
N2   N   0.379958555824284   0.763272485962287   0.111055121385841   1.0000000
N2   N   0.523460590515404   0.904813443495533   0.111006990371905   1.0000000
N2   N   0.524159417269590   0.047514229295024   0.110965599675238   1.0000000
N2   N   0.525188039286519   0.190326017301236   0.111002802795504   1.0000000
N2   N   0.528038674684843   0.333570675599022   0.111001643533735   1.0000000
N2   N   0.519026364804357   0.619730721799656   0.110720060998241   1.0000000
N2   N   0.522554566727482   0.762004359729339   0.110904822950951   1.0000000
N2   N   0.666048235584910   0.903432782077549   0.110992873817782   1.0000000
N2   N   0.667025853845585   0.046568136663787   0.111015636699290   1.0000000
N2   N   0.667821152798964   0.189052467788164   0.110996070622648   1.0000000
N2   N   0.669014131458443   0.330987270458553   0.110989251686925   1.0000000
N2   N   0.666430726317974   0.471962727232154   0.111001643533735   1.0000000
N2   N   0.658945135739581   0.611861285470089   0.111038344304804   1.0000000
N2   N   0.663336621556947   0.758430141679573   0.110887060663272   1.0000000
N2   N   0.808205284521347   0.902711009425678   0.110991501974021   1.0000000
N2   N   0.809823113426901   0.046503065218707   0.111024289418133   1.0000000
N2   N   0.810535324006074   0.189466077911925   0.111045120131384   1.0000000
N2   N   0.810948934129834   0.332180249118033   0.110996070622648   1.0000000
N2   N   0.809675384616762   0.474813362630477   0.111002802795504   1.0000000
N2   N   0.806967644455592   0.616944361538153   0.111058639070658   1.0000000
N2   N   0.805940374901675   0.758447656346379   0.111013181050051   1.0000000
O2   O   0.474135922251204   0.525866098945794   0.112811510927507   1.0000000


