data_1
_audit_creation_method   'vasp2cif'
_cell_length_a    14.93631414619966
_cell_length_b    14.936314146199727
_cell_length_c    13.341276283792837
_cell_angle_alpha    90.0
_cell_angle_beta    90.0
_cell_angle_gamma    119.99999999999984

_symmetry_space_group_name_H-M    'P 1'
loop_
_atom_site_label
_atom_site_type_symbol
_atom_site_fract_x
_atom_site_fract_y
_atom_site_fract_z
_atom_site_occupancy
Al2   Al   0.469768633317106   0.401550983325217   0.375000000000000   1.0000000
N2   N   0.111173747172153   0.055579186941653   0.124911917336194   1.0000000
N2   N   0.611197423033806   0.555617778408818   0.126361971635477   1.0000000
N2   N   0.444478047517011   0.055545108120163   0.124940453184385   1.0000000
N2   N   0.944507517569065   0.555587881689238   0.125198103408234   1.0000000
N2   N   0.777809005025621   0.055571169179478   0.125131991506515   1.0000000
N2   N   0.111158747694524   0.722246040513926   0.624851013548273   1.0000000
N2   N   0.444478047517011   0.722266272730184   0.625059546815615   1.0000000
N2   N   0.277866622718749   0.222253571529210   0.624469764315277   1.0000000
N2   N   0.777844772593585   0.722256429789901   0.624759286277942   1.0000000
N2   N   0.611144150009562   0.222223612835967   0.624835509660332   1.0000000
N2   N   0.944500188291456   0.222252469886410   0.624901807941143   1.0000000
N2   N   0.277813836318603   0.722249719477388   0.125104559819575   1.0000000
N2   N   0.111196587024849   0.222264960179089   0.124974420985894   1.0000000
N2   N   0.444515468959139   0.222223611105537   0.125734623239936   1.0000000
N2   N   0.611144150009562   0.722253870506923   0.125164490339667   1.0000000
N2   N   0.944507517569065   0.722252969213160   0.125198103408234   1.0000000
N2   N   0.777814494299573   0.222245261905815   0.125135992489860   1.0000000
N2   N   0.111161280292611   0.888907506147032   0.624907442688699   1.0000000
N2   N   0.444471309810785   0.888902321572057   0.624908918371725   1.0000000
N2   N   0.277866622718749   0.388946384522868   0.624469764315277   1.0000000
N2   N   0.611197423033806   0.388912977958317   0.623638028364523   1.0000000
N2   N   0.777814494299573   0.888902565727086   0.624864007510139   1.0000000
N2   N   0.944504814272874   0.388919745990325   0.624890970519213   1.0000000
N2   N   0.111173747172153   0.388927893563828   0.124911917336194   1.0000000
N2   N   0.277813836318603   0.888897450174542   0.125104559819575   1.0000000
N2   N   0.611134831042509   0.888909601018397   0.125076325821625   1.0000000
N2   N   0.444649642339218   0.388991487836274   0.130878874210967   1.0000000
N2   N   0.944504814272874   0.888918401615878   0.125109029480788   1.0000000
N2   N   0.777844772593585   0.388921676137013   0.125240713722058   1.0000000
N2   N   0.277827236389083   0.555601531991923   0.625019455657251   1.0000000
N2   N   0.111173747172153   0.055579186941653   0.625088082663805   1.0000000
N2   N   0.611197423033806   0.555617778408818   0.623638028364523   1.0000000
N2   N   0.444478047517011   0.055545108120163   0.625059546815615   1.0000000
N2   N   0.944507517569065   0.555587881689238   0.624801896591765   1.0000000
N2   N   0.111161280292611   0.555587107478908   0.125092557311301   1.0000000
N2   N   0.777809005025621   0.055571169179478   0.624868008493484   1.0000000
N2   N   0.277827236389083   0.055559037730495   0.124980544342748   1.0000000
N2   N   0.444515468959139   0.555625191186937   0.125734623239936   1.0000000
N2   N   0.777845702204728   0.555589517769032   0.125545606926361   1.0000000
N2   N   0.611134831042509   0.055558563357442   0.125076325821625   1.0000000
N2   N   0.444515468959139   0.555625191186937   0.624265376760064   1.0000000
N2   N   0.944500188291456   0.055581051738382   0.125098192058858   1.0000000
N2   N   0.277813836318603   0.722249719477388   0.624895440180425   1.0000000
N2   N   0.111196587024849   0.222264960179089   0.625025579014105   1.0000000
N2   N   0.444515468959139   0.222223611105537   0.624265376760064   1.0000000
N2   N   0.611144150009562   0.722253870506923   0.624835509660332   1.0000000
N2   N   0.944507517569065   0.722252969213160   0.624801896591765   1.0000000
N2   N   0.777814494299573   0.222245261905815   0.624864007510139   1.0000000
N2   N   0.111158747694524   0.722246040513926   0.125148986451728   1.0000000
N2   N   0.444478047517011   0.722266272730184   0.124940453184385   1.0000000
N2   N   0.277866622718749   0.222253571529210   0.125530235684723   1.0000000
N2   N   0.777844772593585   0.722256429789901   0.125240713722058   1.0000000
N2   N   0.611144150009562   0.222223612835967   0.125164490339667   1.0000000
N2   N   0.944500188291456   0.222252469886410   0.125098192058858   1.0000000
N2   N   0.111173747172153   0.388927893563828   0.625088082663805   1.0000000
N2   N   0.277813836318603   0.888897450174542   0.624895440180425   1.0000000
N2   N   0.611134831042509   0.888909601018397   0.624923674178374   1.0000000
N2   N   0.444649642339218   0.388991487836274   0.619121125789034   1.0000000
N2   N   0.944504814272874   0.888918401615878   0.624890970519213   1.0000000
N2   N   0.111161280292611   0.888907506147032   0.125092557311301   1.0000000
N2   N   0.777844772593585   0.388921676137013   0.624759286277942   1.0000000
N2   N   0.444471309810785   0.888902321572057   0.125091081628275   1.0000000
N2   N   0.277866622718749   0.388946384522868   0.125530235684723   1.0000000
N2   N   0.277827236389083   0.555601531991923   0.124980544342748   1.0000000
N2   N   0.611197423033806   0.388912977958317   0.126361971635477   1.0000000
N2   N   0.777814494299573   0.888902565727086   0.125135992489860   1.0000000
N2   N   0.944504814272874   0.388919745990325   0.125109029480788   1.0000000
N2   N   0.111161280292611   0.555587107478908   0.624907442688699   1.0000000
N2   N   0.277827236389083   0.055559037730495   0.625019455657251   1.0000000
N2   N   0.777845702204728   0.555589517769032   0.624454393073639   1.0000000
N2   N   0.611134831042509   0.055558563357442   0.624923674178374   1.0000000
N2   N   0.944500188291456   0.055581051738382   0.624901807941143   1.0000000
N2   N   0.056822514670895   0.111708597883226   0.375000000000000   1.0000000
N2   N   0.556349382941051   0.610404047133196   0.375000000000000   1.0000000
N2   N   0.389345138007652   0.107666417586193   0.375000000000000   1.0000000
N2   N   0.890288179715420   0.611810756524382   0.375000000000000   1.0000000
N2   N   0.723806364340735   0.111891150721384   0.375000000000000   1.0000000
N2   N   0.055507460282823   0.777755510299919   0.875000000000000   1.0000000
N2   N   0.388854130562370   0.777757705391724   0.875000000000000   1.0000000
N2   N   0.222173112297543   0.277753222815439   0.875000000000000   1.0000000
N2   N   0.722183447870658   0.777759064931617   0.875000000000000   1.0000000
N2   N   0.555515211710392   0.277761827117166   0.875000000000000   1.0000000
N2   N   0.888849305039849   0.277758008861566   0.875000000000000   1.0000000
N2   N   0.222963045090060   0.778148189211698   0.375000000000000   1.0000000
N2   N   0.056822514670895   0.278447250121004   0.375000000000000   1.0000000
N2   N   0.387435563520045   0.269012200078177   0.375000000000000   1.0000000
N2   N   0.557117644581842   0.778592922129510   0.375000000000000   1.0000000
N2   N   0.890024951229867   0.778271466246018   0.375000000000000   1.0000000
N2   N   0.723589294421127   0.278566921859091   0.375000000000000   1.0000000
N2   N   0.055509355346173   0.944423376351746   0.875000000000000   1.0000000
N2   N   0.388854130562370   0.944429758503982   0.875000000000000   1.0000000
N2   N   0.222175455006596   0.444414980260885   0.875000000000000   1.0000000
N2   N   0.555498056540511   0.444415694936920   0.875000000000000   1.0000000
N2   N   0.722185400166884   0.944426046928188   0.875000000000000   1.0000000
N2   N   0.888845177910144   0.444420946171207   0.875000000000000   1.0000000
N2   N   0.056107405649646   0.445171445965261   0.375000000000000   1.0000000
N2   N   0.222640235426600   0.943764368616225   0.375000000000000   1.0000000
N2   N   0.557203166477498   0.945268249905413   0.375000000000000   1.0000000
N2   N   0.387435563520045   0.451756696775204   0.375000000000000   1.0000000
N2   N   0.890160759740888   0.945094683711015   0.375000000000000   1.0000000
N2   N   0.724068154457848   0.445922351851953   0.375000000000000   1.0000000
N2   N   0.222179395031486   0.611084251512776   0.875000000000000   1.0000000
N2   N   0.055507384323481   0.111087412445239   0.875000000000000   1.0000000
N2   N   0.555515211710392   0.611086717926563   0.875000000000000   1.0000000
N2   N   0.388852011753469   0.111102063125190   0.875000000000000   1.0000000
N2   N   0.888837431473738   0.611085382403540   0.875000000000000   1.0000000
N2   N   0.056326771623926   0.611676523014547   0.375000000000000   1.0000000
N2   N   0.722185400166884   0.111092686572031   0.875000000000000   1.0000000
N2   N   0.221964752655742   0.109585028384512   0.375000000000000   1.0000000
N2   N   0.389345138007652   0.615012053754803   0.375000000000000   1.0000000
N2   N   0.724068154457848   0.611479135939230   0.375000000000000   1.0000000
N2   N   0.557117644581842   0.111858055785668   0.375000000000000   1.0000000
N2   N   0.388852011753469   0.611083281961623   0.875000000000000   1.0000000
N2   N   0.890297215387037   0.111815274360190   0.375000000000000   1.0000000
N2   N   0.222181041479472   0.777757187406404   0.875000000000000   1.0000000
N2   N   0.055507384323481   0.277753305211578   0.875000000000000   1.0000000
N2   N   0.388850797748193   0.277772223073037   0.875000000000000   1.0000000
N2   N   0.555519769970058   0.777758638226876   0.875000000000000   1.0000000
N2   N   0.888845177910145   0.777757565072272   0.875000000000000   1.0000000
N2   N   0.722183447870658   0.277757716272377   0.875000000000000   1.0000000
N2   N   0.056326771623926   0.777983581942716   0.375000000000000   1.0000000
N2   N   0.389995892456402   0.779287857799060   0.375000000000000   1.0000000
N2   N   0.224080485880029   0.278706909606682   0.375000000000000   1.0000000
N2   N   0.723589294421127   0.778355705895371   0.375000000000000   1.0000000
N2   N   0.556349382941051   0.279278669141190   0.375000000000000   1.0000000
N2   N   0.890160759740888   0.278399409363209   0.375000000000000   1.0000000
N2   N   0.055509355346173   0.444419312327756   0.875000000000000   1.0000000
N2   N   0.222179395031486   0.944428476852045   0.875000000000000   1.0000000
N2   N   0.555520647338077   0.944426990335702   0.875000000000000   1.0000000
N2   N   0.388850797748193   0.444411908008492   0.875000000000000   1.0000000
N2   N   0.888849305039849   0.944424629511619   0.875000000000000   1.0000000
N2   N   0.056107405649646   0.944269293017714   0.375000000000000   1.0000000
N2   N   0.722172635935119   0.444419282461599   0.875000000000000   1.0000000
N2   N   0.389995892456402   0.944041367990678   0.375000000000000   1.0000000
N2   N   0.221964752655742   0.445713057604566   0.375000000000000   1.0000000
N2   N   0.222640235426600   0.612209200143712   0.375000000000000   1.0000000
N2   N   0.723806364340735   0.945248546952686   0.375000000000000   1.0000000
N2   N   0.890024951229867   0.445086818317185   0.375000000000000   1.0000000
N2   N   0.055507460282823   0.611085283316240   0.875000000000000   1.0000000
N2   N   0.222175455006596   0.111093808079047   0.875000000000000   1.0000000
N2   N   0.722172635935119   0.611086686806855   0.875000000000000   1.0000000
N2   N   0.555519769970058   0.111094465076517   0.875000000000000   1.0000000
N2   N   0.888848468941701   0.111090901137522   0.875000000000000   1.0000000
B2   B   0.111392735920417   0.055205463599052   0.375000000000000   1.0000000
B2   B   0.617246030389592   0.562557863660275   0.375000000000000   1.0000000
B2   B   0.445703379504326   0.054040805991618   0.375000000000000   1.0000000
B2   B   0.946032853155856   0.556138752431697   0.375000000000000   1.0000000
B2   B   0.779507819588485   0.056420576460910   0.375000000000000   1.0000000
B2   B   0.111083005456520   0.722208169394925   0.875000000000000   1.0000000
B2   B   0.444394697029808   0.722220911597081   0.875000000000000   1.0000000
B2   B   0.277658042475794   0.222158016922877   0.875000000000000   1.0000000
B2   B   0.777780122758462   0.722266767438914   0.875000000000000   1.0000000
B2   B   0.611086763715733   0.222157918106756   0.875000000000000   1.0000000
B2   B   0.944406557884329   0.222191982620793   0.875000000000000   1.0000000
B2   B   0.278682812586091   0.723127332156363   0.375000000000000   1.0000000
B2   B   0.112783315387024   0.223058324360176   0.375000000000000   1.0000000
B2   B   0.442660133697502   0.216576533946854   0.375000000000000   1.0000000
B2   B   0.613171512921065   0.724118554547750   0.375000000000000   1.0000000
B2   B   0.946032853155856   0.723227434057496   0.375000000000000   1.0000000
B2   B   0.779528905827422   0.222627925693057   0.375000000000000   1.0000000
B2   B   0.111070920885270   0.888878160636459   0.875000000000000   1.0000000
B2   B   0.444406350972238   0.888869842152782   0.875000000000000   1.0000000
B2   B   0.277658042475794   0.388833358886245   0.875000000000000   1.0000000
B2   B   0.611085846380780   0.388833324459951   0.875000000000000   1.0000000
B2   B   0.777767871743649   0.888920089150300   0.875000000000000   1.0000000
B2   B   0.944425760769624   0.388852999329805   0.875000000000000   1.0000000
B2   B   0.111392735920417   0.389520605654693   0.375000000000000   1.0000000
B2   B   0.278682812586091   0.888888813763056   0.375000000000000   1.0000000
B2   B   0.612956380382847   0.890036713065854   0.375000000000000   1.0000000
B2   B   0.945631321202168   0.889667438902179   0.375000000000000   1.0000000
B2   B   0.780122997582564   0.389019561112858   0.375000000000000   1.0000000
B2   B   0.277702386132961   0.555524423369515   0.875000000000000   1.0000000
B2   B   0.111042308847591   0.055529216376206   0.875000000000000   1.0000000
B2   B   0.611085846380780   0.555585855254157   0.875000000000000   1.0000000
B2   B   0.444394697029808   0.055507118766063   0.875000000000000   1.0000000
B2   B   0.944439362939267   0.555538459905717   0.875000000000000   1.0000000
B2   B   0.111804870946092   0.556185814247086   0.375000000000000   1.0000000
B2   B   0.777758542943966   0.055545938138651   0.875000000000000   1.0000000
B2   B   0.277771972215269   0.054242539407293   0.375000000000000   1.0000000
B2   B   0.442660133697501   0.559416933083983   0.375000000000000   1.0000000
B2   B   0.781166439788043   0.557249886560690   0.375000000000000   1.0000000
B2   B   0.612956380382847   0.056253000650321   0.375000000000000   1.0000000
B2   B   0.444367218601798   0.555550172719514   0.875000000000000   1.0000000
B2   B   0.945967197005544   0.056459490874490   0.375000000000000   1.0000000
B2   B   0.277731584450046   0.722201786300702   0.875000000000000   1.0000000
B2   B   0.111023664601620   0.222178498967474   0.875000000000000   1.0000000
B2   B   0.444367218601798   0.222150379215619   0.875000000000000   1.0000000
B2   B   0.611086763715733   0.722262178942306   0.875000000000000   1.0000000
B2   B   0.944439362939267   0.722234236366887   0.875000000000000   1.0000000
B2   B   0.777767871743649   0.222181115926679   0.875000000000000   1.0000000
B2   B   0.112096688855502   0.722715011094415   0.375000000000000   1.0000000
B2   B   0.445703379504326   0.724995906846045   0.375000000000000   1.0000000
B2   B   0.277672186986990   0.220469658040141   0.375000000000000   1.0000000
B2   B   0.780122997582564   0.724436769803035   0.375000000000000   1.0000000
B2   B   0.613171512921065   0.222386291706642   0.375000000000000   1.0000000
B2   B   0.945967197005544   0.222841039464389   0.375000000000000   1.0000000
B2   B   0.111042308847591   0.388846425804714   0.875000000000000   1.0000000
B2   B   0.277731584450046   0.888863131482673   0.875000000000000   1.0000000
B2   B   0.611086792599818   0.888897276237682   0.875000000000000   1.0000000
B2   B   0.444329123739049   0.388831228536189   0.875000000000000   1.0000000
B2   B   0.944425760769624   0.888906094773147   0.875000000000000   1.0000000
B2   B   0.111804870946092   0.888952390032335   0.375000000000000   1.0000000
B2   B   0.777780122758462   0.388846688652878   0.875000000000000   1.0000000
B2   B   0.446013520456017   0.889673426894673   0.375000000000000   1.0000000
B2   B   0.277672186986990   0.390535862280178   0.375000000000000   1.0000000
B2   B   0.277771972215269   0.556862766141312   0.375000000000000   1.0000000
B2   B   0.617246030389592   0.388021500062645   0.375000000000000   1.0000000
B2   B   0.779528905827422   0.890234313467693   0.375000000000000   1.0000000
B2   B   0.945631321202168   0.389297215633317   0.375000000000000   1.0000000
B2   B   0.111070920885270   0.555526093582142   0.875000000000000   1.0000000
B2   B   0.277702386132961   0.055511296096783   0.875000000000000   1.0000000
B2   B   0.777781286509491   0.555557309921413   0.875000000000000   1.0000000
B2   B   0.611086792599818   0.055522849695464   0.875000000000000   1.0000000
B2   B   0.944406557884329   0.055547908596872   0.875000000000000   1.0000000
B2   B   0.055614669312674   0.111139453768994   0.124875438572022   1.0000000
B2   B   0.555525060214391   0.611331050352663   0.125128181270004   1.0000000
B2   B   0.388803289931677   0.110891382707652   0.124854539220639   1.0000000
B2   B   0.889171147939793   0.611252240636567   0.124904535773974   1.0000000
B2   B   0.722255997124562   0.111080836703794   0.124914493016385   1.0000000
B2   B   0.055716755424345   0.777861360611264   0.625056192048259   1.0000000
B2   B   0.388865038951959   0.777828212603697   0.625136777345418   1.0000000
B2   B   0.222187971055595   0.277760652194466   0.624742154480899   1.0000000
B2   B   0.722324275162611   0.777943408998916   0.625195631090954   1.0000000
B2   B   0.555525060214391   0.277527343195063   0.624871818729995   1.0000000
B2   B   0.888995341278409   0.277790162055810   0.625073284603865   1.0000000
B2   B   0.222276785269138   0.777805059301238   0.124973521544155   1.0000000
B2   B   0.055614669312674   0.277808548877016   0.124875438572022   1.0000000
B2   B   0.388657440200142   0.277370410619964   0.127073958515029   1.0000000
B2   B   0.555527961233447   0.777900242959297   0.124771103381413   1.0000000
B2   B   0.889102340757560   0.777937069551917   0.124869218923205   1.0000000
B2   B   0.722324275162611   0.277714199497033   0.124804368909046   1.0000000
B2   B   0.055658516255940   0.944498884320102   0.625128669209666   1.0000000
B2   B   0.388865038951959   0.944370159681597   0.625136777345418   1.0000000
B2   B   0.222200275056862   0.444508802004493   0.625108921144423   1.0000000
B2   B   0.555842659879242   0.444587996606285   0.623545760596985   1.0000000
B2   B   0.722255997124562   0.944508493754103   0.625085506983616   1.0000000
B2   B   0.889102340757560   0.444498604538979   0.625130781076794   1.0000000
B2   B   0.055658516255940   0.444492965269166   0.124871330790333   1.0000000
B2   B   0.222249631929352   0.944406209532836   0.124889453904515   1.0000000
B2   B   0.555539660262499   0.944436496797914   0.124895569842344   1.0000000
B2   B   0.388657440200142   0.444620362913514   0.127073958515029   1.0000000
B2   B   0.888995341278409   0.944538512555934   0.124926715396136   1.0000000
B2   B   0.722526129917042   0.444518724392161   0.124978116741515   1.0000000
B2   B   0.222249631929352   0.611176755729852   0.625110546095486   1.0000000
B2   B   0.055614669312674   0.111139453768994   0.625124561427978   1.0000000
B2   B   0.555525060214391   0.611331050352663   0.624871818729995   1.0000000
B2   B   0.388803289931677   0.110891382707652   0.625145460779363   1.0000000
B2   B   0.889171147939793   0.611252240636567   0.625095464226026   1.0000000
B2   B   0.055716755424345   0.611188728146417   0.124943807951741   1.0000000
B2   B   0.722255997124562   0.111080836703794   0.625085506983616   1.0000000
B2   B   0.222200275056862   0.111024806385705   0.124891078855576   1.0000000
B2   B   0.388803289931677   0.611245240557367   0.124854539220639   1.0000000
B2   B   0.722526129917042   0.611340738858218   0.124978116741515   1.0000000
B2   B   0.555527961233447   0.110961051607486   0.124771103381413   1.0000000
B2   B   0.388803289931677   0.611245240557367   0.625145460779363   1.0000000
B2   B   0.888956339771581   0.111144836552462   0.124964181326915   1.0000000
B2   B   0.222276785269138   0.777805059301238   0.625026478455845   1.0000000
B2   B   0.055614669312674   0.277808548877016   0.625124561427978   1.0000000
B2   B   0.388657440200142   0.277370410619964   0.622926041484973   1.0000000
B2   B   0.555527961233447   0.777900242959297   0.625228896618588   1.0000000
B2   B   0.889102340757560   0.777937069551917   0.625130781076794   1.0000000
B2   B   0.722324275162611   0.277714199497033   0.625195631090954   1.0000000
B2   B   0.055716755424345   0.777861360611264   0.124943807951741   1.0000000
B2   B   0.388865038951959   0.777828212603697   0.124863222654582   1.0000000
B2   B   0.222187971055595   0.277760652194466   0.125257845519100   1.0000000
B2   B   0.722324275162611   0.777943408998916   0.124804368909046   1.0000000
B2   B   0.555525060214391   0.277527343195063   0.125128181270004   1.0000000
B2   B   0.888995341278409   0.277790162055810   0.124926715396136   1.0000000
B2   B   0.055658516255940   0.444492965269166   0.625128669209666   1.0000000
B2   B   0.222249631929352   0.944406209532836   0.625110546095486   1.0000000
B2   B   0.555539660262499   0.944436496797914   0.625104430157656   1.0000000
B2   B   0.388657440200142   0.444620362913514   0.622926041484973   1.0000000
B2   B   0.888995341278409   0.944538512555934   0.625073284603865   1.0000000
B2   B   0.055658516255940   0.944498884320102   0.124871330790333   1.0000000
B2   B   0.722526129917042   0.444518724392161   0.625021883258486   1.0000000
B2   B   0.388865038951959   0.944370159681597   0.124863222654582   1.0000000
B2   B   0.222200275056862   0.444508802004493   0.124891078855576   1.0000000
B2   B   0.222249631929352   0.611176755729852   0.124889453904515   1.0000000
B2   B   0.555842659879242   0.444587996606285   0.126454239403015   1.0000000
B2   B   0.722255997124562   0.944508493754103   0.124914493016385   1.0000000
B2   B   0.889102340757560   0.444498604538979   0.124869218923205   1.0000000
B2   B   0.055716755424345   0.611188728146417   0.625056192048259   1.0000000
B2   B   0.222200275056862   0.111024806385705   0.625108921144423   1.0000000
B2   B   0.722526129917042   0.611340738858218   0.625021883258486   1.0000000
B2   B   0.555527961233447   0.110961051607486   0.625228896618588   1.0000000
B2   B   0.888956339771581   0.111144836552462   0.625035818673085   1.0000000


