data_1
_audit_creation_method   'vasp2cif'
_cell_length_a    14.93631414619966
_cell_length_b    14.936314146199727
_cell_length_c    13.341276283792837
_cell_angle_alpha    90.0
_cell_angle_beta    90.0
_cell_angle_gamma    119.99999999999984

_symmetry_space_group_name_H-M    'P 1'
loop_
_atom_site_label
_atom_site_type_symbol
_atom_site_fract_x
_atom_site_fract_y
_atom_site_fract_z
_atom_site_occupancy
Sn2   Sn   0.482567951845945   0.407950642589635   0.375000000000000   1.0000000
N2   N   0.111233939996818   0.055600299195056   0.124840503879178   1.0000000
N2   N   0.611246422103683   0.555665689090323   0.127835621370222   1.0000000
N2   N   0.444502353745639   0.055557036739938   0.124999488629470   1.0000000
N2   N   0.944541853811218   0.555610967394832   0.125331733326968   1.0000000
N2   N   0.777861519720978   0.055597426527154   0.125077896686154   1.0000000
N2   N   0.111190488178507   0.722261910755917   0.624822102365621   1.0000000
N2   N   0.444502353745639   0.722278650339039   0.625000511370527   1.0000000
N2   N   0.277943763577968   0.222289436422445   0.624096766447344   1.0000000
N2   N   0.777883161015770   0.722272258842877   0.624439020189625   1.0000000
N2   N   0.611172769123165   0.222237346991700   0.624577553932061   1.0000000
N2   N   0.944566370867336   0.222290262259907   0.624941434163740   1.0000000
N2   N   0.277841193525510   0.722269005956292   0.125114095510719   1.0000000
N2   N   0.111281180498466   0.222307256915897   0.124967065199335   1.0000000
N2   N   0.444542437082349   0.222249508165851   0.126430247146521   1.0000000
N2   N   0.611172769123165   0.722268755464797   0.125422446067941   1.0000000
N2   N   0.944541853811218   0.722264219749721   0.125331733326968   1.0000000
N2   N   0.777858304936964   0.222271796833405   0.125153241291959   1.0000000
N2   N   0.111197132332467   0.888914738105198   0.624900368387948   1.0000000
N2   N   0.444499247036582   0.888916290184956   0.624904231618050   1.0000000
N2   N   0.277943763577968   0.388987660488852   0.624096766447344   1.0000000
N2   N   0.611246422103683   0.388914066346683   0.622164378629779   1.0000000
N2   N   0.777858304936964   0.888919841436889   0.624846758708037   1.0000000
N2   N   0.944552519087269   0.388952120572071   0.624870046403114   1.0000000
N2   N   0.111233939996818   0.388966974135090   0.124840503879178   1.0000000
N2   N   0.277841193525510   0.888905520902546   0.125114095510718   1.0000000
N2   N   0.611169440613745   0.888926481049773   0.125066359484364   1.0000000
N2   N   0.444725893714541   0.389029613523936   0.134500028838474   1.0000000
N2   N   0.944552519087269   0.888933731848530   0.125129953596887   1.0000000
N2   N   0.777883161015770   0.388944235506230   0.125560979810378   1.0000000
N2   N   0.277861897273902   0.555627909889166   0.624973946849229   1.0000000
N2   N   0.111233939996818   0.055600299195056   0.625159496120819   1.0000000
N2   N   0.611246422103683   0.555665689090323   0.622164378629779   1.0000000
N2   N   0.444502353745639   0.055557036739938   0.625000511370527   1.0000000
N2   N   0.944541853811218   0.555610967394832   0.624668266673034   1.0000000
N2   N   0.111197132332467   0.555615727560600   0.125099631612050   1.0000000
N2   N   0.777861519720978   0.055597426527154   0.624922103313849   1.0000000
N2   N   0.277861897273902   0.055567320718069   0.125026053150770   1.0000000
N2   N   0.444542437082349   0.555626262249835   0.126430247146521   1.0000000
N2   N   0.777879457411775   0.555606395372556   0.126083085972541   1.0000000
N2   N   0.611169440613745   0.055576292897294   0.125066359484364   1.0000000
N2   N   0.444542437082349   0.555626262249835   0.623569752853479   1.0000000
N2   N   0.944566370867336   0.055609441940760   0.125058565836262   1.0000000
N2   N   0.277841193525510   0.722269005956292   0.624885904489278   1.0000000
N2   N   0.111281180498466   0.222307256915897   0.625032934800663   1.0000000
N2   N   0.444542437082349   0.222249508165851   0.623569752853479   1.0000000
N2   N   0.611172769123165   0.722268755464797   0.624577553932061   1.0000000
N2   N   0.944541853811218   0.722264219749721   0.624668266673034   1.0000000
N2   N   0.777858304936964   0.222271796833405   0.624846758708037   1.0000000
N2   N   0.111190488178507   0.722261910755918   0.125177897634376   1.0000000
N2   N   0.444502353745639   0.722278650339039   0.124999488629470   1.0000000
N2   N   0.277943763577968   0.222289436422445   0.125903233552652   1.0000000
N2   N   0.777883161015770   0.722272258842877   0.125560979810378   1.0000000
N2   N   0.611172769123165   0.222237346991700   0.125422446067941   1.0000000
N2   N   0.944566370867336   0.222290262259907   0.125058565836262   1.0000000
N2   N   0.111233939996818   0.388966974135090   0.625159496120819   1.0000000
N2   N   0.277841193525510   0.888905520902546   0.624885904489278   1.0000000
N2   N   0.611169440613745   0.888926481049773   0.624933640515642   1.0000000
N2   N   0.444725893714541   0.389029613523936   0.615499971161525   1.0000000
N2   N   0.944552519087269   0.888933731848530   0.624870046403114   1.0000000
N2   N   0.111197132332467   0.888914738105198   0.125099631612050   1.0000000
N2   N   0.777883161015770   0.388944235506230   0.624439020189625   1.0000000
N2   N   0.444499247036582   0.888916290184956   0.125095768381953   1.0000000
N2   N   0.277943763577968   0.388987660488852   0.125903233552652   1.0000000
N2   N   0.277861897273902   0.555627909889166   0.125026053150770   1.0000000
N2   N   0.611246422103683   0.388914066346683   0.127835621370222   1.0000000
N2   N   0.777858304936964   0.888919841436889   0.125153241291959   1.0000000
N2   N   0.944552519087269   0.388952120572071   0.125129953596887   1.0000000
N2   N   0.111197132332467   0.555615727560600   0.624900368387948   1.0000000
N2   N   0.277861897273902   0.055567320718069   0.624973946849229   1.0000000
N2   N   0.777879457411775   0.555606395372556   0.623916914027461   1.0000000
N2   N   0.611169440613745   0.055576292897294   0.624933640515642   1.0000000
N2   N   0.944566370867336   0.055609441940760   0.624941434163740   1.0000000
N2   N   0.057358439198832   0.112058239531020   0.375000000000000   1.0000000
N2   N   0.555229414124843   0.616069445776243   0.375000000000000   1.0000000
N2   N   0.387924607020721   0.104401321645490   0.375000000000000   1.0000000
N2   N   0.888780250389083   0.611056791861206   0.375000000000000   1.0000000
N2   N   0.724163625833388   0.111485003979995   0.375000000000000   1.0000000
N2   N   0.055529489534544   0.777768549790394   0.875000000000000   1.0000000
N2   N   0.388885495509283   0.777770524713933   0.875000000000000   1.0000000
N2   N   0.222203605576667   0.277768469455001   0.875000000000000   1.0000000
N2   N   0.722208740691925   0.777773526071927   0.875000000000000   1.0000000
N2   N   0.555542022525459   0.277777728093409   0.875000000000000   1.0000000
N2   N   0.888874993043966   0.277767369397976   0.875000000000000   1.0000000
N2   N   0.221586731956711   0.777460032645023   0.375000000000000   1.0000000
N2   N   0.057358439198832   0.278633533001148   0.375000000000000   1.0000000
N2   N   0.386041473236651   0.264104223504982   0.375000000000000   1.0000000
N2   N   0.556560383605619   0.780891075164606   0.375000000000000   1.0000000
N2   N   0.889952679952479   0.778755246815210   0.375000000000000   1.0000000
N2   N   0.723887940374284   0.277154804238595   0.375000000000000   1.0000000
N2   N   0.055535890317539   0.944441486703023   0.875000000000000   1.0000000
N2   N   0.388885495509283   0.944448304128688   0.875000000000000   1.0000000
N2   N   0.222205803688610   0.444422616728490   0.875000000000000   1.0000000
N2   N   0.555520139101963   0.444426736217646   0.875000000000000   1.0000000
N2   N   0.722212676410405   0.944441159269819   0.875000000000000   1.0000000
N2   N   0.888867125639736   0.444428510395572   0.875000000000000   1.0000000
N2   N   0.055805014214807   0.445034054807640   0.375000000000000   1.0000000
N2   N   0.221358161944337   0.942472781732394   0.375000000000000   1.0000000
N2   N   0.556788302134150   0.945060817733739   0.375000000000000   1.0000000
N2   N   0.386041473236650   0.455270583065003   0.375000000000000   1.0000000
N2   N   0.890629653314446   0.945820986564098   0.375000000000000   1.0000000
N2   N   0.724156732059185   0.444759158237765   0.375000000000000   1.0000000
N2   N   0.222209429982267   0.611092518238323   0.875000000000000   1.0000000
N2   N   0.055535800913884   0.111104674063252   0.875000000000000   1.0000000
N2   N   0.555542022525459   0.611097627765382   0.875000000000000   1.0000000
N2   N   0.388885101995197   0.111126267585849   0.875000000000000   1.0000000
N2   N   0.888854978581203   0.611094155957278   0.875000000000000   1.0000000
N2   N   0.055061722160770   0.611161963110439   0.375000000000000   1.0000000
N2   N   0.722212676410405   0.111104850473916   0.875000000000000   1.0000000
N2   N   0.221511126413852   0.108690323279834   0.375000000000000   1.0000000
N2   N   0.387924607020721   0.616856618708572   0.375000000000000   1.0000000
N2   N   0.724156732059185   0.612730907154756   0.375000000000000   1.0000000
N2   N   0.556560383605619   0.109002641774343   0.375000000000000   1.0000000
N2   N   0.388885101995197   0.611092167742692   0.875000000000000   1.0000000
N2   N   0.890934173931979   0.112133753632660   0.375000000000000   1.0000000
N2   N   0.222208709983481   0.777771021658407   0.875000000000000   1.0000000
N2   N   0.055535800913884   0.277764460183967   0.875000000000000   1.0000000
N2   N   0.388881453619029   0.277793955742868   0.875000000000000   1.0000000
N2   N   0.555549887209211   0.777772832910321   0.875000000000000   1.0000000
N2   N   0.888867125639736   0.777771948577499   0.875000000000000   1.0000000
N2   N   0.722208740691925   0.277768547953338   0.875000000000000   1.0000000
N2   N   0.055061722160770   0.777233092383672   0.375000000000000   1.0000000
N2   N   0.388835067459331   0.779548348082487   0.375000000000000   1.0000000
N2   N   0.224891576003321   0.279112454668329   0.375000000000000   1.0000000
N2   N   0.723887940374284   0.780066469469025   0.375000000000000   1.0000000
N2   N   0.555229414124843   0.272493301681933   0.375000000000000   1.0000000
N2   N   0.890629653314446   0.278142000083681   0.375000000000000   1.0000000
N2   N   0.055535890317539   0.444427736947841   0.875000000000000   1.0000000
N2   N   0.222209429982267   0.944450245077283   0.875000000000000   1.0000000
N2   N   0.555549922503422   0.944441627918378   0.875000000000000   1.0000000
N2   N   0.388881453619029   0.444420831209493   0.875000000000000   1.0000000
N2   N   0.888874993043966   0.944440956979325   0.875000000000000   1.0000000
N2   N   0.055805014214807   0.944104292740492   0.375000000000000   1.0000000
N2   N   0.722192781970403   0.444427977687502   0.875000000000000   1.0000000
N2   N   0.388835067459331   0.942620052710175   0.375000000000000   1.0000000
N2   N   0.221511126413852   0.446154136467355   0.375000000000000   1.0000000
N2   N   0.221358161944337   0.612218713545274   0.375000000000000   1.0000000
N2   N   0.724163625833388   0.946011955186728   0.375000000000000   1.0000000
N2   N   0.889952679952481   0.444530766470610   0.375000000000000   1.0000000
N2   N   0.055529489534544   0.611094273077489   0.875000000000000   1.0000000
N2   N   0.222205803688610   0.111116520293454   0.875000000000000   1.0000000
N2   N   0.722192781970403   0.611098137616232   0.875000000000000   1.0000000
N2   N   0.555549887209211   0.111110387632227   0.875000000000000   1.0000000
N2   N   0.888875960322295   0.111104646827819   0.875000000000000   1.0000000
B2   B   0.110888904130609   0.054718934231299   0.375000000000000   1.0000000
B2   B   0.620754670016679   0.576518580813179   0.375000000000000   1.0000000
B2   B   0.445098609279983   0.051617972940353   0.375000000000000   1.0000000
B2   B   0.945119572827692   0.555609254196630   0.375000000000000   1.0000000
B2   B   0.780287417152243   0.056810375242789   0.375000000000000   1.0000000
B2   B   0.111110978590236   0.722222155961788   0.875000000000000   1.0000000
B2   B   0.444428067370528   0.722269078310964   0.875000000000000   1.0000000
B2   B   0.277632579657471   0.222132617634523   0.875000000000000   1.0000000
B2   B   0.777838899111730   0.722330458713023   0.875000000000000   1.0000000
B2   B   0.611139263198931   0.222136957186047   0.875000000000000   1.0000000
B2   B   0.944414337536468   0.222188090278462   0.875000000000000   1.0000000
B2   B   0.277519248351047   0.723040378157962   0.375000000000000   1.0000000
B2   B   0.112867426501080   0.223100379917205   0.375000000000000   1.0000000
B2   B   0.441779566172656   0.211472929211362   0.375000000000000   1.0000000
B2   B   0.613816414944596   0.729252494606388   0.375000000000000   1.0000000
B2   B   0.945119572827692   0.722843651964399   0.375000000000000   1.0000000
B2   B   0.780326035474619   0.221832489849078   0.375000000000000   1.0000000
B2   B   0.111088740485473   0.888886064372308   0.875000000000000   1.0000000
B2   B   0.444440408446303   0.888886870889815   0.875000000000000   1.0000000
B2   B   0.277632579657471   0.388833295356275   0.875000000000000   1.0000000
B2   B   0.611147132193314   0.388828594036366   0.875000000000000   1.0000000
B2   B   0.777809498622746   0.888970264234707   0.875000000000000   1.0000000
B2   B   0.944453863836466   0.388848834583481   0.875000000000000   1.0000000
B2   B   0.110888904130609   0.389503303232638   0.375000000000000   1.0000000
B2   B   0.277519248351047   0.887812203526414   0.375000000000000   1.0000000
B2   B   0.613392562353316   0.891641899693784   0.375000000000000   1.0000000
B2   B   0.945687051111714   0.890201997969515   0.375000000000000   1.0000000
B2   B   0.781029579998366   0.387555227181405   0.375000000000000   1.0000000
B2   B   0.277706891470698   0.555546905124521   0.875000000000000   1.0000000
B2   B   0.111033299249289   0.055521933682582   0.875000000000000   1.0000000
B2   B   0.611147132193318   0.555651871490278   0.875000000000000   1.0000000
B2   B   0.444428067370528   0.055492322392896   0.875000000000000   1.0000000
B2   B   0.944482176000829   0.555548941941552   0.875000000000000   1.0000000
B2   B   0.110669109814426   0.555934770428995   0.375000000000000   1.0000000
B2   B   0.777791594238272   0.055562463785805   0.875000000000000   1.0000000
B2   B   0.276335748678734   0.052228825897101   0.375000000000000   1.0000000
B2   B   0.441779566172656   0.563639970294627   0.375000000000000   1.0000000
B2   B   0.780224759209647   0.556779046271488   0.375000000000000   1.0000000
B2   B   0.613392562353316   0.055083995992865   0.375000000000000   1.0000000
B2   B   0.444388340091698   0.555598573433963   0.875000000000000   1.0000000
B2   B   0.946507990529556   0.056986745364218   0.375000000000000   1.0000000
B2   B   0.277754134643413   0.722220969109039   0.875000000000000   1.0000000
B2   B   0.110997892671802   0.222165613002565   0.875000000000000   1.0000000
B2   B   0.444388340091698   0.222123099991069   0.875000000000000   1.0000000
B2   B   0.611139263198931   0.722335639346211   0.875000000000000   1.0000000
B2   B   0.944482176000829   0.722266567392613   0.875000000000000   1.0000000
B2   B   0.777809498622746   0.222172567721371   0.875000000000000   1.0000000
B2   B   0.110850970098615   0.722092151715975   0.375000000000000   1.0000000
B2   B   0.445098609279983   0.726813969672965   0.375000000000000   1.0000000
B2   B   0.275976929401760   0.218820612515392   0.375000000000000   1.0000000
B2   B   0.781029579998366   0.726807686150283   0.375000000000000   1.0000000
B2   B   0.613816414944598   0.217897253671534   0.375000000000000   1.0000000
B2   B   0.946507990529556   0.222854578498672   0.375000000000000   1.0000000
B2   B   0.111033299249289   0.388844698900036   0.875000000000000   1.0000000
B2   B   0.277754134643413   0.888866498867708   0.875000000000000   1.0000000
B2   B   0.611131822881109   0.888940143297847   0.875000000000000   1.0000000
B2   B   0.444330101407401   0.388831717370363   0.875000000000000   1.0000000
B2   B   0.944453863836466   0.888938362586316   0.875000000000000   1.0000000
B2   B   0.110669109814426   0.888067672718759   0.375000000000000   1.0000000
B2   B   0.777838899111730   0.388841773732044   0.875000000000000   1.0000000
B2   B   0.445522154684547   0.889427744008941   0.375000000000000   1.0000000
B2   B   0.275976929401759   0.390489650219696   0.375000000000000   1.0000000
B2   B   0.276335748678734   0.557440256114968   0.375000000000000   1.0000000
B2   B   0.620754670016678   0.377569422536829   0.375000000000000   1.0000000
B2   B   0.780326035474619   0.891826878958876   0.375000000000000   1.0000000
B2   B   0.945687051111714   0.388818386475535   0.375000000000000   1.0000000
B2   B   0.111088740485473   0.555536009446490   0.875000000000000   1.0000000
B2   B   0.277706891470698   0.055493319679511   0.875000000000000   1.0000000
B2   B   0.777846056511734   0.555589694922532   0.875000000000000   1.0000000
B2   B   0.611131822881109   0.055525012916594   0.875000000000000   1.0000000
B2   B   0.944414337536468   0.055559580591340   0.875000000000000   1.0000000
B2   B   0.055615999494352   0.111114146299705   0.124618554070959   1.0000000
B2   B   0.555587621439634   0.611522010384003   0.125450187922289   1.0000000
B2   B   0.388750947664347   0.110714296987820   0.124720351153909   1.0000000
B2   B   0.889348397808128   0.611340865570734   0.124887153144859   1.0000000
B2   B   0.722315294089141   0.111082401531088   0.124699709679917   1.0000000
B2   B   0.055793653147104   0.777881366834700   0.625195619534179   1.0000000
B2   B   0.388854584684568   0.777874153098833   0.625333869305840   1.0000000
B2   B   0.222111491697234   0.277722412515283   0.624827253423257   1.0000000
B2   B   0.722432440183241   0.778067211674204   0.625276188685037   1.0000000
B2   B   0.555587621439634   0.277398944388973   0.624549812077708   1.0000000
B2   B   0.889067895902696   0.277819546934580   0.625270728515910   1.0000000
B2   B   0.222292353477185   0.777812843405266   0.124803478727406   1.0000000
B2   B   0.055615999494352   0.277835186527982   0.124618554070959   1.0000000
B2   B   0.388530795903997   0.277109875068138   0.127973675217140   1.0000000
B2   B   0.555550281608382   0.778003774341067   0.124596281421834   1.0000000
B2   B   0.889240644867374   0.778018712275041   0.124774851916957   1.0000000
B2   B   0.722432440183241   0.277698561842377   0.124723811314964   1.0000000
B2   B   0.055697003704145   0.944477233725988   0.625352806278418   1.0000000
B2   B   0.388854584684568   0.944313764919068   0.625333869305840   1.0000000
B2   B   0.222150276709726   0.444589470131953   0.625354269998816   1.0000000
B2   B   0.556124370470343   0.444728851901836   0.622120572069571   1.0000000
B2   B   0.722315294089141   0.944566225891389   0.625300290320083   1.0000000
B2   B   0.889240644867374   0.444555265925674   0.625225148083043   1.0000000
B2   B   0.055697003704145   0.444553103311483   0.124647193721582   1.0000000
B2   B   0.222239485250593   0.944320541971290   0.124683845858504   1.0000000
B2   B   0.555561064984349   0.944447199158838   0.124679613061603   1.0000000
B2   B   0.388530795903997   0.444754254169200   0.127973675217140   1.0000000
B2   B   0.889067895902696   0.944581682301453   0.124729271484088   1.0000000
B2   B   0.722776674037825   0.444601748644867   0.125308311652213   1.0000000
B2   B   0.222239485250593   0.611252276612638   0.625316154141496   1.0000000
B2   B   0.055615999494352   0.111114146299705   0.625381445929041   1.0000000
B2   B   0.555587621439634   0.611522010384003   0.624549812077708   1.0000000
B2   B   0.388750947664347   0.110714296987820   0.625279648846092   1.0000000
B2   B   0.889348397808128   0.611340865570734   0.625112846855138   1.0000000
B2   B   0.055793653147104   0.611245619645741   0.124804380465827   1.0000000
B2   B   0.722315294089141   0.111082401531088   0.625300290320083   1.0000000
B2   B   0.222150276709726   0.110894139911107   0.124645730001187   1.0000000
B2   B   0.388750947664347   0.611369984009869   0.124720351153909   1.0000000
B2   B   0.722776674037825   0.611508258726300   0.125308311652213   1.0000000
B2   B   0.555550281608382   0.110879840600653   0.124596281421834   1.0000000
B2   B   0.388750947664347   0.611369984009869   0.625279648846092   1.0000000
B2   B   0.889008192895842   0.111170763114594   0.124749686751196   1.0000000
B2   B   0.222292353477185   0.777812843405266   0.625196521272597   1.0000000
B2   B   0.055615999494352   0.277835186527982   0.625381445929041   1.0000000
B2   B   0.388530795903997   0.277109875068138   0.622026324782866   1.0000000
B2   B   0.555550281608382   0.778003774341067   0.625403718578168   1.0000000
B2   B   0.889240644867374   0.778018712275041   0.625225148083043   1.0000000
B2   B   0.722432440183241   0.277698561842377   0.625276188685037   1.0000000
B2   B   0.055793653147104   0.777881366834700   0.124804380465827   1.0000000
B2   B   0.388854584684568   0.777874153098833   0.124666130694160   1.0000000
B2   B   0.222111491697234   0.277722412515283   0.125172746576743   1.0000000
B2   B   0.722432440183241   0.778067211674204   0.124723811314964   1.0000000
B2   B   0.555587621439634   0.277398944388973   0.125450187922289   1.0000000
B2   B   0.889067895902696   0.277819546934580   0.124729271484088   1.0000000
B2   B   0.055697003704145   0.444553103311483   0.625352806278418   1.0000000
B2   B   0.222239485250593   0.944320541971290   0.625316154141496   1.0000000
B2   B   0.555561064984349   0.944447199158838   0.625320386938401   1.0000000
B2   B   0.388530795903997   0.444754254169200   0.622026324782866   1.0000000
B2   B   0.889067895902696   0.944581682301453   0.625270728515910   1.0000000
B2   B   0.055697003704145   0.944477233725988   0.124647193721582   1.0000000
B2   B   0.722776674037825   0.444601748644867   0.624691688347787   1.0000000
B2   B   0.388854584684568   0.944313764919068   0.124666130694160   1.0000000
B2   B   0.222150276709726   0.444589470131953   0.124645730001187   1.0000000
B2   B   0.222239485250593   0.611252276612638   0.124683845858504   1.0000000
B2   B   0.556124370470343   0.444728851901836   0.127879427930430   1.0000000
B2   B   0.722315294089141   0.944566225891389   0.124699709679917   1.0000000
B2   B   0.889240644867374   0.444555265925674   0.124774851916957   1.0000000
B2   B   0.055793653147104   0.611245619645741   0.625195619534179   1.0000000
B2   B   0.222150276709726   0.110894139911107   0.625354269998816   1.0000000
B2   B   0.722776674037825   0.611508258726300   0.624691688347787   1.0000000
B2   B   0.555550281608382   0.110879840600653   0.625403718578168   1.0000000
B2   B   0.889008192895842   0.111170763114594   0.625250313248803   1.0000000


