data_1
_audit_creation_method   'vasp2cif'
_cell_length_a    17.52789999999977
_cell_length_b    17.52789999999977
_cell_length_c    15.0
_cell_angle_alpha    90.0
_cell_angle_beta    90.0
_cell_angle_gamma    119.99999999999916

_symmetry_space_group_name_H-M    'P 1'
loop_
_atom_site_label
_atom_site_type_symbol
_atom_site_fract_x
_atom_site_fract_y
_atom_site_fract_z
_atom_site_occupancy
B2   B   0.902595667907507   0.949011045205315   0.106849074658954   1.0000000
B2   B   0.904768929823564   0.092620522314210   0.107226134715225   1.0000000
B2   B   0.905808087609870   0.235672003920834   0.107470248800094   1.0000000
B2   B   0.906020010806179   0.378741442256163   0.107602752502920   1.0000000
B2   B   0.905269850415451   0.522004819762682   0.106558604062043   1.0000000
B2   B   0.903922802199402   0.664865008617827   0.105209353434309   1.0000000
B2   B   0.902044755343325   0.806527745607356   0.105999575758840   1.0000000
B2   B   0.047299846876034   0.952675615207139   0.104980816835018   1.0000000
B2   B   0.049368140951437   0.096166182896617   0.106320812023996   1.0000000
B2   B   0.049821577839215   0.238133490492090   0.107086303339477   1.0000000
B2   B   0.048857191188134   0.380207899953632   0.107318557640193   1.0000000
B2   B   0.046990591351286   0.523163373202752   0.106911740974353   1.0000000
B2   B   0.046039258194748   0.666493712085633   0.105440773300745   1.0000000
B2   B   0.046302106192342   0.809561304181067   0.104362619391572   1.0000000
B2   B   0.190268519095738   0.954012482300500   0.106574698612900   1.0000000
B2   B   0.193287602030726   0.098837713161610   0.107929728398511   1.0000000
B2   B   0.196633351587080   0.243842746984269   0.108982161685155   1.0000000
B2   B   0.193622160019429   0.383274599154805   0.109302200851349   1.0000000
B2   B   0.189024553197059   0.524855597488362   0.108720500060893   1.0000000
B2   B   0.187118262646817   0.667639376673760   0.108260050396496   1.0000000
B2   B   0.188766053096972   0.810691897751865   0.106867013967274   1.0000000
B2   B   0.332566124252774   0.953729849466742   0.109761492767994   1.0000000
B2   B   0.334554852628795   0.097457814463856   0.111776811703357   1.0000000
B2   B   0.340013008666006   0.245080178419979   0.113916080913096   1.0000000
B2   B   0.345651379340454   0.394305866532737   0.113394610712768   1.0000000
B2   B   0.331774988992656   0.528821155375168   0.109964127362525   1.0000000
B2   B   0.327205483400255   0.669535498100406   0.108083867860591   1.0000000
B2   B   0.330778539328865   0.811223867543737   0.109479684589274   1.0000000
B2   B   0.474996379132986   0.951410020314738   0.111119338397054   1.0000000
B2   B   0.476534710425533   0.094263052253122   0.113527344122351   1.0000000
B2   B   0.478503991028622   0.237514629253875   0.117703737231607   1.0000000
B2   B   0.489696163257373   0.387413612654272   0.120650603812775   1.0000000
B2   B   0.485422988747859   0.579058905973243   0.117230932819740   1.0000000
B2   B   0.465461915508297   0.664313801971172   0.107465661693033   1.0000000
B2   B   0.472646532026594   0.808338494070124   0.109860344321067   1.0000000
B2   B   0.617236521738467   0.948017178620626   0.110890775019388   1.0000000
B2   B   0.619072934852996   0.091790552300240   0.111895174557775   1.0000000
B2   B   0.620402784786470   0.234356060905225   0.115193161369858   1.0000000
B2   B   0.622762120171820   0.376024222540144   0.115694718366496   1.0000000
B2   B   0.615437636496560   0.510114061047222   0.114055067463351   1.0000000
B2   B   0.610358450614128   0.650759713028863   0.118486770768757   1.0000000
B2   B   0.613454409843473   0.801899553370600   0.112398365531556   1.0000000
B2   B   0.759359019820961   0.947016578233679   0.109851708594009   1.0000000
B2   B   0.761681329918713   0.091333102972949   0.109322587961109   1.0000000
B2   B   0.762960525747967   0.234657797230439   0.110373944557377   1.0000000
B2   B   0.764138016188416   0.377760131379537   0.110901339035652   1.0000000
B2   B   0.763418078371219   0.520424162219401   0.108221132566558   1.0000000
B2   B   0.758966920160071   0.659991874227566   0.110245748072052   1.0000000
B2   B   0.755653221793886   0.801194539505761   0.111115189456657   1.0000000
N2   N   0.950740933914738   0.902374117030082   0.105382450694657   1.0000000
N2   N   0.952601066195190   0.045519777398767   0.106432939959785   1.0000000
N2   N   0.953848716751694   0.188574397507259   0.106862698642375   1.0000000
N2   N   0.953636436287129   0.331301219518856   0.107091491127672   1.0000000
N2   N   0.952287371596881   0.474244670156979   0.106728361278136   1.0000000
N2   N   0.951075639288215   0.617414333824558   0.105042085209816   1.0000000
N2   N   0.950426819238031   0.760114661034186   0.104440965608044   1.0000000
N2   N   0.094659381326193   0.905267309456156   0.104595309417420   1.0000000
N2   N   0.097119666627844   0.049140228198414   0.105878252307018   1.0000000
N2   N   0.099740664219198   0.192964400842191   0.107119406191870   1.0000000
N2   N   0.098092697346315   0.333805856726153   0.107698855808542   1.0000000
N2   N   0.094666285498293   0.475593376301020   0.107581715458328   1.0000000
N2   N   0.092772193681427   0.618607109108117   0.106825516682588   1.0000000
N2   N   0.093508638323729   0.762002434294033   0.105045758950989   1.0000000
N2   N   0.237283125802466   0.906180554130680   0.107455000811062   1.0000000
N2   N   0.239430790002066   0.050132202329969   0.108395087681417   1.0000000
N2   N   0.244191311954432   0.196379524696866   0.109985604454920   1.0000000
N2   N   0.247798390721965   0.341573707017191   0.110372615578952   1.0000000
N2   N   0.238244192365413   0.478131719650222   0.109879166850135   1.0000000
N2   N   0.233609115844397   0.619837072632498   0.109125734698579   1.0000000
N2   N   0.235696597557576   0.762944327209343   0.108413606216319   1.0000000
N2   N   0.379735689463864   0.905899359015029   0.110244236614917   1.0000000
N2   N   0.381325600536954   0.049078365432082   0.111766641024052   1.0000000
N2   N   0.383972684075075   0.193975784437166   0.115203580870101   1.0000000
N2   N   0.393672766965006   0.345784920526289   0.116523070778561   1.0000000
N2   N   0.394091770112846   0.494433760709555   0.114292422937765   1.0000000
N2   N   0.373047917831014   0.622227943744029   0.106231222130940   1.0000000
N2   N   0.377716603073579   0.763538728108992   0.109342447267230   1.0000000
N2   N   0.521999916514513   0.902903795555697   0.110896219971321   1.0000000
N2   N   0.523734699098297   0.046273813615880   0.112265226757017   1.0000000
N2   N   0.525215443549862   0.189407362792907   0.116335591104646   1.0000000
N2   N   0.528372351346887   0.333145877549322   0.120391862456355   1.0000000
N2   N   0.518330904262444   0.758031225242040   0.109592224523953   1.0000000
N2   N   0.663314825000785   0.897836216206630   0.111338058198026   1.0000000
N2   N   0.666110334100390   0.043450059474715   0.110556246948736   1.0000000
N2   N   0.667574338439837   0.186974401745231   0.112729765764587   1.0000000
N2   N   0.669150876502248   0.329415008938750   0.115012815500073   1.0000000
N2   N   0.667839040659853   0.470568885658401   0.110500931620732   1.0000000
N2   N   0.660688073626219   0.606579981397946   0.114287710894599   1.0000000
N2   N   0.656798243652112   0.747973481739177   0.115187874393373   1.0000000
N2   N   0.805435885934589   0.897846433976937   0.109095855861528   1.0000000
N2   N   0.808648128008911   0.043034897054018   0.108548431312434   1.0000000
N2   N   0.810234048734839   0.186987458121536   0.108736177848397   1.0000000
N2   N   0.810930307532303   0.330184175387791   0.109498128547279   1.0000000
N2   N   0.810265426634211   0.473095625343580   0.108392454581972   1.0000000
N2   N   0.808167557550906   0.615083028864459   0.107170365704548   1.0000000
N2   N   0.804804845488589   0.755332784501443   0.109088396340337   1.0000000
Al2   Al   0.519126708264112   0.513064348788021   0.226809527057809   1.0000000


