data_1
_audit_creation_method   'vasp2cif'
_cell_length_a    17.52789999999977
_cell_length_b    17.52789999999977
_cell_length_c    15.0
_cell_angle_alpha    90.0
_cell_angle_beta    90.0
_cell_angle_gamma    119.99999999999916

_symmetry_space_group_name_H-M    'P 1'
loop_
_atom_site_label
_atom_site_type_symbol
_atom_site_fract_x
_atom_site_fract_y
_atom_site_fract_z
_atom_site_occupancy
B2   B   0.907827081953116   0.953437736018165   0.110728222924827   1.0000000
B2   B   0.909246484816218   0.096328368915177   0.110768025638281   1.0000000
B2   B   0.909701342592126   0.238375407963976   0.110714067657364   1.0000000
B2   B   0.909648408602910   0.380450842938474   0.110627097268743   1.0000000
B2   B   0.908237715990861   0.522629886006076   0.110719544447360   1.0000000
B2   B   0.905646816709630   0.664642341028025   0.110825494574311   1.0000000
B2   B   0.901595853025473   0.805790115623104   0.110747642636302   1.0000000
B2   B   0.048941304218166   0.952869291344085   0.110690338366076   1.0000000
B2   B   0.052575804007700   0.097553389861355   0.110819570166366   1.0000000
B2   B   0.053118341211977   0.239713868671603   0.110887216533208   1.0000000
B2   B   0.052246775173365   0.381834862828949   0.110763671787518   1.0000000
B2   B   0.050336116114270   0.524496202967072   0.110671933564852   1.0000000
B2   B   0.048713993194276   0.667161107980654   0.110777739375187   1.0000000
B2   B   0.047436629891927   0.809664773291984   0.110727086533597   1.0000000
B2   B   0.191927595837598   0.954178401335714   0.110662752405333   1.0000000
B2   B   0.195732787642022   0.099321388637402   0.110734832666529   1.0000000
B2   B   0.197837742889851   0.242519042848730   0.110884273781253   1.0000000
B2   B   0.195832158134096   0.383422969071638   0.110862915427746   1.0000000
B2   B   0.192037248343552   0.525812610008567   0.110767309937219   1.0000000
B2   B   0.190717500173263   0.668628239208616   0.110762072868242   1.0000000
B2   B   0.190794667914939   0.811181652801914   0.110751480549084   1.0000000
B2   B   0.334502027450454   0.954335750688539   0.110748244023211   1.0000000
B2   B   0.336462783976374   0.097718631026822   0.110733064743445   1.0000000
B2   B   0.343838948951460   0.246512300367918   0.110808233383535   1.0000000
B2   B   0.343227286640291   0.387763635839877   0.110793706859886   1.0000000
B2   B   0.333323292446595   0.528442713331328   0.110740193336051   1.0000000
B2   B   0.331846417945405   0.670341271566516   0.110734677750950   1.0000000
B2   B   0.333497281133104   0.812213188493435   0.110847220645255   1.0000000
B2   B   0.477386864301947   0.953842701865103   0.110752196675392   1.0000000
B2   B   0.478589492985933   0.095085031942855   0.110725562263240   1.0000000
B2   B   0.480525174338346   0.236906288749769   0.110763427065410   1.0000000
B2   B   0.497902206737928   0.391169409564585   0.110866160706617   1.0000000
B2   B   0.471480952806953   0.670848249342499   0.110659412092957   1.0000000
B2   B   0.476160120203498   0.812581392902595   0.110812999052006   1.0000000
B2   B   0.620940190773024   0.955433693321338   0.110735975849200   1.0000000
B2   B   0.621902063921365   0.095027404081529   0.110652425924230   1.0000000
B2   B   0.622947780921764   0.234581850344831   0.110675184246710   1.0000000
B2   B   0.625201322943023   0.373072606497865   0.110780959512598   1.0000000
B2   B   0.609060062328079   0.495597147106766   0.110937770685259   1.0000000
B2   B   0.619105107337382   0.816375151494920   0.110732275001037   1.0000000
B2   B   0.764884245252360   0.954283141235273   0.110719121706012   1.0000000
B2   B   0.765767266377857   0.095812797962784   0.110686584060276   1.0000000
B2   B   0.766463422433883   0.236944985689113   0.110614027571198   1.0000000
B2   B   0.767329644510073   0.378083525671183   0.110654009760164   1.0000000
B2   B   0.765021293088550   0.518277544216227   0.110784632384961   1.0000000
B2   B   0.757730373414282   0.654748089166598   0.110863856777670   1.0000000
B2   B   0.763423257060269   0.811477543545875   0.110704468182270   1.0000000
S2   S   0.619519878694540   0.661694661718932   0.110711932920734   1.0000000
N2   N   0.952391557893147   0.902969892893814   0.110697010771932   1.0000000
N2   N   0.956892551205336   0.048954064596601   0.110752443923964   1.0000000
N2   N   0.957680983508184   0.191454131907572   0.110787644673150   1.0000000
N2   N   0.957380173018085   0.333429605567511   0.110677641762007   1.0000000
N2   N   0.955965403045284   0.475659026127778   0.110633132211184   1.0000000
N2   N   0.953978714916988   0.618106839253936   0.110788575771753   1.0000000
N2   N   0.951406420376256   0.760221438807935   0.110771874149888   1.0000000
N2   N   0.096220460850168   0.905331431964533   0.110644344275607   1.0000000
N2   N   0.099277810734554   0.049478462104133   0.110718988761473   1.0000000
N2   N   0.101711368702312   0.193272448035761   0.110886595360652   1.0000000
N2   N   0.100575327601694   0.334902810314541   0.110847925492646   1.0000000
N2   N   0.097809320940336   0.477064369152198   0.110691662726050   1.0000000
N2   N   0.096238426336249   0.619849793277140   0.110703800570658   1.0000000
N2   N   0.095475725775075   0.762582356863073   0.110747291111707   1.0000000
N2   N   0.239108766317159   0.906469953214627   0.110699588889084   1.0000000
N2   N   0.241155893204414   0.049921578812621   0.110665721045262   1.0000000
N2   N   0.246499747612752   0.196237578256975   0.110798036170365   1.0000000
N2   N   0.246478330826674   0.338309056900175   0.110850023721781   1.0000000
N2   N   0.239662394213656   0.478442739711860   0.110819660028224   1.0000000
N2   N   0.237707462559420   0.621093883505621   0.110730133056566   1.0000000
N2   N   0.238339829891389   0.763860220134875   0.110793785845552   1.0000000
N2   N   0.381991244653845   0.906980173065117   0.110791585383432   1.0000000
N2   N   0.383214995204107   0.049291022294678   0.110718289873941   1.0000000
N2   N   0.385877421444373   0.193297029632080   0.110759480392995   1.0000000
N2   N   0.397199950126481   0.345412163414939   0.110802199184980   1.0000000
N2   N   0.382698292478421   0.483363373573797   0.110635354598100   1.0000000
N2   N   0.378058112770950   0.622918166473611   0.110635626225473   1.0000000
N2   N   0.380920778443696   0.765120860710022   0.110807110995622   1.0000000
N2   N   0.525285261114203   0.907190577630084   0.110761651693768   1.0000000
N2   N   0.526374048360194   0.048194499840362   0.110682043452640   1.0000000
N2   N   0.527653381654588   0.189169806204841   0.110719046266852   1.0000000
N2   N   0.530554985540113   0.330497742042877   0.110778579203629   1.0000000
N2   N   0.472375238561942   0.528180102570173   0.110092107734281   1.0000000
N2   N   0.508926023088608   0.615957789437788   0.110413992145016   1.0000000
N2   N   0.523589315954460   0.765498307125816   0.110751356604050   1.0000000
N2   N   0.669280033918091   0.909966912788420   0.110731076646538   1.0000000
N2   N   0.670234649210240   0.049249836694245   0.110666738791054   1.0000000
N2   N   0.671104288981237   0.188900559586139   0.110605299636643   1.0000000
N2   N   0.672761708437160   0.328078899171702   0.110690290081851   1.0000000
N2   N   0.671395283373142   0.465719877247242   0.110802760377589   1.0000000
N2   N   0.661265277440105   0.589971587731449   0.110933236290431   1.0000000
N2   N   0.670653823457331   0.776451804650610   0.110601633363994   1.0000000
N2   N   0.812800396618304   0.906594704550982   0.110714464445645   1.0000000
N2   N   0.813808416943089   0.048990698009591   0.110707722805864   1.0000000
N2   N   0.814448019920948   0.190441640973147   0.110651688890710   1.0000000
N2   N   0.814971522827341   0.331667674913004   0.110576997962231   1.0000000
N2   N   0.814006208176605   0.472986810027922   0.110690508155178   1.0000000
N2   N   0.810566381333452   0.613842325942901   0.110831667431977   1.0000000
N2   N   0.803488124936801   0.754672164316824   0.110758128964349   1.0000000


