data_1
_audit_creation_method   'vasp2cif'
_cell_length_a    14.93631414619966
_cell_length_b    14.936314146199727
_cell_length_c    13.341276283792837
_cell_angle_alpha    90.0
_cell_angle_beta    90.0
_cell_angle_gamma    119.99999999999984

_symmetry_space_group_name_H-M    'P 1'
loop_
_atom_site_label
_atom_site_type_symbol
_atom_site_fract_x
_atom_site_fract_y
_atom_site_fract_z
_atom_site_occupancy
Sn2   Sn   0.555555555555557   0.444444444444443   0.375000000000000   1.0000000
N2   N   0.111083773576098   0.055557454846804   0.124962875141748   1.0000000
N2   N   0.611252900520627   0.555839134374582   0.117923203563575   1.0000000
N2   N   0.444470956598836   0.055594420117020   0.125009016348677   1.0000000
N2   N   0.944405579882984   0.555529043401172   0.125009016348679   1.0000000
N2   N   0.777799006877568   0.055566170105453   0.124739567289787   1.0000000
N2   N   0.111093323629614   0.722213328481463   0.624797622471027   1.0000000
N2   N   0.444470956598834   0.722209869815157   0.624990983651331   1.0000000
N2   N   0.277706566997481   0.222200655318929   0.626556804926166   1.0000000
N2   N   0.777799344681069   0.722293433002532   0.626556804926164   1.0000000
N2   N   0.611160754988132   0.222200655318928   0.626556804926166   1.0000000
N2   N   0.944433829894535   0.222200993122429   0.625260432710204   1.0000000
N2   N   0.277786671518531   0.722213328481463   0.125202377528968   1.0000000
N2   N   0.111045538819127   0.222189436076226   0.124569749260538   1.0000000
N2   N   0.444472845816409   0.222279024966157   0.122800092650884   1.0000000
N2   N   0.611160754988125   0.722293433002532   0.123443195073836   1.0000000
N2   N   0.944405579882984   0.722209869815157   0.125009016348677   1.0000000
N2   N   0.777810563923767   0.222189436076226   0.124569749260538   1.0000000
N2   N   0.111100659216372   0.888899340783629   0.624827473478370   1.0000000
N2   N   0.444465348233928   0.888899340783629   0.624827473478370   1.0000000
N2   N   0.277706566997478   0.388839245011871   0.626556804926166   1.0000000
N2   N   0.611252900520628   0.388747099479373   0.632076796436432   1.0000000
N2   N   0.777810563923767   0.888954461180870   0.625430250739465   1.0000000
N2   N   0.944442545153197   0.388859652062615   0.625037124858250   1.0000000
N2   N   0.111083773576098   0.388859652062615   0.124962875141746   1.0000000
N2   N   0.277786671518531   0.888906676370390   0.125202377528968   1.0000000
N2   N   0.611140347937382   0.888916226423894   0.124962875141748   1.0000000
N2   N   0.444160865625419   0.388747099479375   0.117923203563575   1.0000000
N2   N   0.944442545153197   0.888916226423894   0.124962875141748   1.0000000
N2   N   0.777799344681067   0.388839245011869   0.123443195073836   1.0000000
N2   N   0.277790130184851   0.555529043401172   0.624990983651331   1.0000000
N2   N   0.111083773576098   0.055557454846804   0.625037124858250   1.0000000
N2   N   0.611252900520627   0.555839134374582   0.632076796436432   1.0000000
N2   N   0.444470956598836   0.055594420117021   0.624990983651331   1.0000000
N2   N   0.944405579882984   0.555529043401172   0.624990983651331   1.0000000
N2   N   0.111100659216372   0.555534651766069   0.125172526521629   1.0000000
N2   N   0.777799006877568   0.055566170105453   0.625260432710204   1.0000000
N2   N   0.277790130184851   0.055594420117020   0.125009016348677   1.0000000
N2   N   0.444472845816407   0.555527154183602   0.122800092650884   1.0000000
N2   N   0.777720975033842   0.555527154183601   0.122800092650884   1.0000000
N2   N   0.611140347937382   0.055557454846805   0.124962875141748   1.0000000
N2   N   0.444472845816409   0.555527154183601   0.627199907349105   1.0000000
N2   N   0.944433829894535   0.055566170105453   0.124739567289787   1.0000000
N2   N   0.277786671518531   0.722213328481463   0.624797622471027   1.0000000
N2   N   0.111045538819126   0.222189436076226   0.625430250739465   1.0000000
N2   N   0.444472845816409   0.222279024966157   0.627199907349105   1.0000000
N2   N   0.611160754988130   0.722293433002532   0.626556804926166   1.0000000
N2   N   0.944405579882984   0.722209869815157   0.624990983651331   1.0000000
N2   N   0.777810563923767   0.222189436076227   0.625430250739465   1.0000000
N2   N   0.111093323629614   0.722213328481463   0.125202377528968   1.0000000
N2   N   0.444470956598836   0.722209869815157   0.125009016348677   1.0000000
N2   N   0.277706566997481   0.222200655318927   0.123443195073836   1.0000000
N2   N   0.777799344681067   0.722293433002532   0.123443195073836   1.0000000
N2   N   0.611160754988125   0.222200655318928   0.123443195073836   1.0000000
N2   N   0.944433829894535   0.222200993122429   0.124739567289787   1.0000000
N2   N   0.111083773576097   0.388859652062615   0.625037124858250   1.0000000
N2   N   0.277786671518531   0.888906676370390   0.624797622471027   1.0000000
N2   N   0.611140347937382   0.888916226423895   0.625037124858250   1.0000000
N2   N   0.444160865625419   0.388747099479375   0.632076796436432   1.0000000
N2   N   0.944442545153197   0.888916226423895   0.625037124858250   1.0000000
N2   N   0.111100659216372   0.888899340783629   0.125172526521629   1.0000000
N2   N   0.777799344681067   0.388839245011869   0.626556804926166   1.0000000
N2   N   0.444465348233928   0.888899340783629   0.125172526521629   1.0000000
N2   N   0.277706566997480   0.388839245011871   0.123443195073836   1.0000000
N2   N   0.277790130184851   0.555529043401172   0.125009016348679   1.0000000
N2   N   0.611252900520625   0.388747099479375   0.117923203563575   1.0000000
N2   N   0.777810563923767   0.888954461180870   0.124569749260538   1.0000000
N2   N   0.944442545153197   0.388859652062615   0.124962875141748   1.0000000
N2   N   0.111100659216372   0.555534651766069   0.624827473478370   1.0000000
N2   N   0.277790130184851   0.055594420117020   0.624990983651331   1.0000000
N2   N   0.777720975033841   0.555527154183601   0.627199907349105   1.0000000
N2   N   0.611140347937382   0.055557454846804   0.625037124858250   1.0000000
N2   N   0.944433829894535   0.055566170105453   0.625260432710204   1.0000000
N2   N   0.053958862562095   0.110036147821644   0.375000000000000   1.0000000
N2   N   0.555620131210929   0.624682311757612   0.375000000000000   1.0000000
N2   N   0.387009926134287   0.107353185601918   0.375000000000000   1.0000000
N2   N   0.892646814398082   0.612990073865711   0.375000000000000   1.0000000
N2   N   0.722743951926223   0.110036147821644   0.375000000000000   1.0000000
N2   N   0.055571330612314   0.777783613234167   0.875000000000000   1.0000000
N2   N   0.388878949288527   0.777783613234167   0.875000000000000   1.0000000
N2   N   0.222228030541345   0.277780681937343   0.875000000000000   1.0000000
N2   N   0.722219318062664   0.777771969458645   0.875000000000000   1.0000000
N2   N   0.555529991526553   0.277740380607346   0.875000000000000   1.0000000
N2   N   0.888891578642627   0.277785894084324   0.875000000000000   1.0000000
N2   N   0.222222222222221   0.777777777777779   0.375000000000000   1.0000000
N2   N   0.053958862562095   0.277256048073790   0.375000000000000   1.0000000
N2   N   0.375317688242388   0.264271152786648   0.375000000000000   1.0000000
N2   N   0.554887052027205   0.783239343667470   0.375000000000000   1.0000000
N2   N   0.895018958306920   0.783239343667470   0.375000000000000   1.0000000
N2   N   0.724792325021353   0.275207674978655   0.375000000000000   1.0000000
N2   N   0.055560777675192   0.944439222324790   0.875000000000000   1.0000000
N2   N   0.388878949288527   0.944428669387694   0.875000000000000   1.0000000
N2   N   0.222218336788326   0.444459362097232   0.875000000000000   1.0000000
N2   N   0.555555555555557   0.444444444444443   0.875000000000000   1.0000000
N2   N   0.722214105915685   0.944439017891642   0.875000000000000   1.0000000
N2   N   0.888907691975569   0.444459362097231   0.875000000000000   1.0000000
N2   N   0.055866952566965   0.445067238467262   0.375000000000000   1.0000000
N2   N   0.221645826454266   0.942894178900237   0.375000000000000   1.0000000
N2   N   0.554932761532748   0.944133047433039   0.375000000000000   1.0000000
N2   N   0.375317688242386   0.444379868789064   0.375000000000000   1.0000000
N2   N   0.889963852178363   0.946041137437906   0.375000000000000   1.0000000
N2   N   0.735728847213354   0.444379868789062   0.375000000000000   1.0000000
N2   N   0.222216386765824   0.611121050711489   0.875000000000000   1.0000000
N2   N   0.055560982108349   0.111108421357366   0.875000000000000   1.0000000
N2   N   0.555529991526556   0.611122944252554   0.875000000000000   1.0000000
N2   N   0.388869072484058   0.111071478301459   0.875000000000000   1.0000000
N2   N   0.888928521698541   0.611130927515953   0.875000000000000   1.0000000
N2   N   0.057105821099768   0.612084980887365   0.375000000000000   1.0000000
N2   N   0.722214105915685   0.111108421357366   0.875000000000000   1.0000000
N2   N   0.216760656332539   0.104981041693079   0.375000000000000   1.0000000
N2   N   0.387009926134290   0.612990073865709   0.375000000000000   1.0000000
N2   N   0.735728847213352   0.624682311757619   0.375000000000000   1.0000000
N2   N   0.554887052027210   0.104981041693080   0.375000000000000   1.0000000
N2   N   0.388869072484055   0.611130927515953   0.875000000000000   1.0000000
N2   N   0.888888888888886   0.111111111111115   0.375000000000000   1.0000000
N2   N   0.222222222222221   0.777777777777779   0.875000000000000   1.0000000
N2   N   0.055560982108349   0.277785894084324   0.875000000000000   1.0000000
N2   N   0.388877055747454   0.277740380607344   0.875000000000000   1.0000000
N2   N   0.555540637902764   0.777781663211668   0.875000000000000   1.0000000
N2   N   0.888907691975569   0.777781663211668   0.875000000000000   1.0000000
N2   N   0.722219318062664   0.277780681937344   0.875000000000000   1.0000000
N2   N   0.057105821099768   0.778354173545724   0.375000000000000   1.0000000
N2   N   0.387915019112636   0.778354173545724   0.375000000000000   1.0000000
N2   N   0.217082016623964   0.275207674978654   0.375000000000000   1.0000000
N2   N   0.724792325021349   0.782917983376027   0.375000000000000   1.0000000
N2   N   0.555620131210939   0.264271152786647   0.375000000000000   1.0000000
N2   N   0.889963852178362   0.277256048073790   0.375000000000000   1.0000000
N2   N   0.055560777675192   0.444454888683714   0.875000000000000   1.0000000
N2   N   0.222216386765824   0.944428669387694   0.875000000000000   1.0000000
N2   N   0.555545111316282   0.944439222324790   0.875000000000000   1.0000000
N2   N   0.388877055747454   0.444470008473445   0.875000000000000   1.0000000
N2   N   0.888891578642627   0.944439017891642   0.875000000000000   1.0000000
N2   N   0.055866952566964   0.944133047433039   0.375000000000000   1.0000000
N2   N   0.722259619392646   0.444470008473445   0.875000000000000   1.0000000
N2   N   0.387915019112638   0.942894178900241   0.375000000000000   1.0000000
N2   N   0.216760656332541   0.445112947972793   0.375000000000000   1.0000000
N2   N   0.221645826454266   0.612084980887365   0.375000000000000   1.0000000
N2   N   0.722743951926223   0.946041137437909   0.375000000000000   1.0000000
N2   N   0.895018958306920   0.445112947972796   0.375000000000000   1.0000000
N2   N   0.055571330612314   0.611121050711489   0.875000000000000   1.0000000
N2   N   0.222218336788324   0.111092308024433   0.875000000000000   1.0000000
N2   N   0.722259619392646   0.611122944252554   0.875000000000000   1.0000000
N2   N   0.555540637902764   0.111092308024431   0.875000000000000   1.0000000
N2   N   0.888888888888886   0.111111111111115   0.875000000000000   1.0000000
B2   B   0.108179037630835   0.053209072055881   0.375000000000000   1.0000000
B2   B   0.627773245433275   0.588879824199874   0.375000000000000   1.0000000
B2   B   0.443742581378897   0.053116125819865   0.375000000000000   1.0000000
B2   B   0.946883874180138   0.556257418621086   0.375000000000000   1.0000000
B2   B   0.778427298081768   0.055880315707553   0.375000000000000   1.0000000
B2   B   0.111102119370886   0.722217726352113   0.875000000000000   1.0000000
B2   B   0.444440917748135   0.722187280038972   0.875000000000000   1.0000000
B2   B   0.277881818726319   0.222282003218057   0.875000000000000   1.0000000
B2   B   0.777717996781936   0.722118181273693   0.875000000000000   1.0000000
B2   B   0.611066851158406   0.222282003218058   0.875000000000000   1.0000000
B2   B   0.944453971651354   0.222241276636037   0.875000000000000   1.0000000
B2   B   0.277384016114355   0.722615983885632   0.375000000000000   1.0000000
B2   B   0.108044241922800   0.220688787628063   0.375000000000000   1.0000000
B2   B   0.442413123494530   0.218159580322399   0.375000000000000   1.0000000
B2   B   0.612295873873228   0.731835556047550   0.375000000000000   1.0000000
B2   B   0.946883874180141   0.723959788892369   0.375000000000000   1.0000000
B2   B   0.779311212371932   0.220688787628066   0.375000000000000   1.0000000
B2   B   0.111115200098036   0.888884799901966   0.875000000000000   1.0000000
B2   B   0.444436266470594   0.888884799901966   0.875000000000000   1.0000000
B2   B   0.277881818726320   0.388933148841595   0.875000000000000   1.0000000
B2   B   0.611060162497014   0.388939837502978   0.875000000000000   1.0000000
B2   B   0.777742742419132   0.888818818171583   0.875000000000000   1.0000000
B2   B   0.944428490732377   0.388913172210141   0.875000000000000   1.0000000
B2   B   0.108179037630836   0.388303298908284   0.375000000000000   1.0000000
B2   B   0.277384016114352   0.888101365562033   0.375000000000000   1.0000000
B2   B   0.611696701091717   0.891820962369170   0.375000000000000   1.0000000
B2   B   0.411120175800117   0.372226754566729   0.375000000000000   1.0000000
B2   B   0.946790927944115   0.891820962369170   0.375000000000000   1.0000000
B2   B   0.786206348841007   0.387704126126774   0.375000000000000   1.0000000
B2   B   0.277812719961030   0.555559082251860   0.875000000000000   1.0000000
B2   B   0.111151348144433   0.055571509267621   0.875000000000000   1.0000000
B2   B   0.611060162497014   0.555453658327369   0.875000000000000   1.0000000
B2   B   0.444440917748136   0.055586971042500   0.875000000000000   1.0000000
B2   B   0.944413028957495   0.555559082251860   0.875000000000000   1.0000000
B2   B   0.111342036952009   0.556017407237340   0.375000000000000   1.0000000
B2   B   0.777758723363957   0.055546028348648   0.875000000000000   1.0000000
B2   B   0.276040211107627   0.053116125819865   0.375000000000000   1.0000000
B2   B   0.442413123494530   0.557586876505477   0.375000000000000   1.0000000
B2   B   0.781840419677604   0.557586876505473   0.375000000000000   1.0000000
B2   B   0.611696701091715   0.053209072055881   0.375000000000000   1.0000000
B2   B   0.444475821299984   0.555524178700024   0.875000000000000   1.0000000
B2   B   0.944119684292446   0.055880315707553   0.375000000000000   1.0000000
B2   B   0.277782273647892   0.722217726352113   0.875000000000000   1.0000000
B2   B   0.111181181828406   0.222257257580867   0.875000000000000   1.0000000
B2   B   0.444475821299984   0.222284975933306   0.875000000000000   1.0000000
B2   B   0.611066851158413   0.722118181273693   0.875000000000000   1.0000000
B2   B   0.944413028957495   0.722187280038972   0.875000000000000   1.0000000
B2   B   0.777742742419135   0.222257257580867   0.875000000000000   1.0000000
B2   B   0.111898634437964   0.722615983885632   0.375000000000000   1.0000000
B2   B   0.443742581378897   0.723959788892369   0.375000000000000   1.0000000
B2   B   0.268164443952451   0.213793651159005   0.375000000000000   1.0000000
B2   B   0.786206348840994   0.731835556047551   0.375000000000000   1.0000000
B2   B   0.612295873873227   0.213793651159004   0.375000000000000   1.0000000
B2   B   0.944119684292446   0.221572701918229   0.375000000000000   1.0000000
B2   B   0.111151348144435   0.388913172210141   0.875000000000000   1.0000000
B2   B   0.277782273647892   0.888897880629114   0.875000000000000   1.0000000
B2   B   0.611086827789862   0.888848651855554   0.875000000000000   1.0000000
B2   B   0.444546341672631   0.388939837502978   0.875000000000000   1.0000000
B2   B   0.944428490732377   0.888848651855554   0.875000000000000   1.0000000
B2   B   0.111342036952010   0.888657963047984   0.375000000000000   1.0000000
B2   B   0.777717996781936   0.388933148841595   0.875000000000000   1.0000000
B2   B   0.443982592762642   0.888657963047984   0.375000000000000   1.0000000
B2   B   0.268164443952452   0.387704126126774   0.375000000000000   1.0000000
B2   B   0.276040211107627   0.556257418621085   0.375000000000000   1.0000000
B2   B   0.627773245433280   0.372226754566723   0.375000000000000   1.0000000
B2   B   0.779311212371929   0.891955758077200   0.375000000000000   1.0000000
B2   B   0.946790927944115   0.388303298908283   0.375000000000000   1.0000000
B2   B   0.111115200098036   0.555563733529381   0.875000000000000   1.0000000
B2   B   0.277812719961030   0.055586971042500   0.875000000000000   1.0000000
B2   B   0.777715024066697   0.555524178700024   0.875000000000000   1.0000000
B2   B   0.611086827789862   0.055571509267621   0.875000000000000   1.0000000
B2   B   0.944453971651354   0.055546028348648   0.875000000000000   1.0000000
B2   B   0.055562143863975   0.111143214947297   0.124917503114537   1.0000000
B2   B   0.555715604683789   0.610919051852127   0.121787325443647   1.0000000
B2   B   0.389046746421212   0.111426826175774   0.124700643738882   1.0000000
B2   B   0.888573173824233   0.610953253578773   0.124700643738882   1.0000000
B2   B   0.722247737749986   0.111143214947296   0.124917503114537   1.0000000
B2   B   0.055439929592803   0.777737524378527   0.624693198512616   1.0000000
B2   B   0.388964261452407   0.777737524378527   0.624693198512616   1.0000000
B2   B   0.222300467351432   0.277816900342386   0.625974061105491   1.0000000
B2   B   0.722183099657608   0.777699532648564   0.625974061105491   1.0000000
B2   B   0.555715604683789   0.278129886165006   0.628212674556353   1.0000000
B2   B   0.888856785052705   0.277752262250011   0.625082496885459   1.0000000
B2   B   0.222222222222221   0.777777777777779   0.125292961677830   1.0000000
B2   B   0.055562143863975   0.277752262250011   0.124917503114537   1.0000000
B2   B   0.389080948147874   0.278129886165006   0.121787325443647   1.0000000
B2   B   0.555636249349619   0.777693016356488   0.124767019337106   1.0000000
B2   B   0.888723433673547   0.777693016356488   0.124767019337105   1.0000000
B2   B   0.722183099657610   0.277816900342386   0.124025938894499   1.0000000
B2   B   0.055525115650439   0.944474884349561   0.624789198281876   1.0000000
B2   B   0.388964261452409   0.944560070407186   0.624693198512616   1.0000000
B2   B   0.222306983643513   0.444363750650380   0.625232980662890   1.0000000
B2   B   0.555555555555557   0.444444444444443   0.628023699087353   1.0000000
B2   B   0.722247737749986   0.944437856136021   0.625082496885459   1.0000000
B2   B   0.888723433673541   0.444363750650380   0.625232980662890   1.0000000
B2   B   0.055525115650439   0.444383564634208   0.125210801718133   1.0000000
B2   B   0.222262475621454   0.944560070407187   0.125306801487381   1.0000000
B2   B   0.555616435365795   0.944474884349561   0.125210801718133   1.0000000
B2   B   0.389080948147871   0.444284395316200   0.121787325443647   1.0000000
B2   B   0.888856785052705   0.944437856136021   0.124917503114537   1.0000000
B2   B   0.721870113834996   0.444284395316200   0.121787325443647   1.0000000
B2   B   0.222262475621454   0.611035738547574   0.624693198512616   1.0000000
B2   B   0.055562143863975   0.111143214947297   0.625082496885459   1.0000000
B2   B   0.555715604683785   0.610919051852130   0.628212674556353   1.0000000
B2   B   0.389046746421212   0.111426826175772   0.625299356261146   1.0000000
B2   B   0.888573173824233   0.610953253578773   0.625299356261146   1.0000000
B2   B   0.055439929592803   0.611035738547582   0.125306801487381   1.0000000
B2   B   0.722247737749986   0.111143214947297   0.625082496885459   1.0000000
B2   B   0.222306983643513   0.111276566326465   0.124767019337105   1.0000000
B2   B   0.389046746421214   0.610953253578773   0.124700643738882   1.0000000
B2   B   0.721870113835004   0.610919051852130   0.121787325443647   1.0000000
B2   B   0.555636249349627   0.111276566326463   0.124767019337105   1.0000000
B2   B   0.389046746421212   0.610953253578773   0.625299356261146   1.0000000
B2   B   0.888888888888886   0.111111111111115   0.124850353467641   1.0000000
B2   B   0.222222222222221   0.777777777777779   0.624707038322174   1.0000000
B2   B   0.055562143863975   0.277752262250011   0.625082496885459   1.0000000
B2   B   0.389080948147873   0.278129886165004   0.628212674556353   1.0000000
B2   B   0.555636249349619   0.777693016356488   0.625232980662890   1.0000000
B2   B   0.888723433673547   0.777693016356488   0.625232980662890   1.0000000
B2   B   0.722183099657608   0.277816900342386   0.625974061105491   1.0000000
B2   B   0.055439929592803   0.777737524378527   0.125306801487381   1.0000000
B2   B   0.388964261452407   0.777737524378527   0.125306801487381   1.0000000
B2   B   0.222300467351431   0.277816900342386   0.124025938894499   1.0000000
B2   B   0.722183099657608   0.777699532648564   0.124025938894498   1.0000000
B2   B   0.555715604683780   0.278129886165004   0.121787325443647   1.0000000
B2   B   0.888856785052705   0.277752262250011   0.124917503114537   1.0000000
B2   B   0.055525115650439   0.444383564634208   0.624789198281876   1.0000000
B2   B   0.222262475621454   0.944560070407187   0.624693198512616   1.0000000
B2   B   0.555616435365795   0.944474884349561   0.624789198281876   1.0000000
B2   B   0.389080948147873   0.444284395316200   0.628212674556353   1.0000000
B2   B   0.888856785052705   0.944437856136021   0.625082496885459   1.0000000
B2   B   0.055525115650439   0.944474884349561   0.125210801718133   1.0000000
B2   B   0.721870113835004   0.444284395316200   0.628212674556353   1.0000000
B2   B   0.388964261452407   0.944560070407186   0.125306801487381   1.0000000
B2   B   0.222306983643514   0.444363750650381   0.124767019337105   1.0000000
B2   B   0.222262475621454   0.611035738547582   0.125306801487381   1.0000000
B2   B   0.555555555555557   0.444444444444443   0.121976300912660   1.0000000
B2   B   0.722247737749986   0.944437856136021   0.124917503114537   1.0000000
B2   B   0.888723433673541   0.444363750650380   0.124767019337106   1.0000000
B2   B   0.055439929592803   0.611035738547582   0.624693198512616   1.0000000
B2   B   0.222306983643514   0.111276566326463   0.625232980662890   1.0000000
B2   B   0.721870113835004   0.610919051852130   0.628212674556353   1.0000000
B2   B   0.555636249349619   0.111276566326463   0.625232980662890   1.0000000
B2   B   0.888888888888886   0.111111111111115   0.625149646532353   1.0000000


