data_1
_audit_creation_method   'vasp2cif'
_cell_length_a    14.93631414619966
_cell_length_b    14.936314146199727
_cell_length_c    13.341276283792837
_cell_angle_alpha    90.0
_cell_angle_beta    90.0
_cell_angle_gamma    119.99999999999984

_symmetry_space_group_name_H-M    'P 1'
loop_
_atom_site_label
_atom_site_type_symbol
_atom_site_fract_x
_atom_site_fract_y
_atom_site_fract_z
_atom_site_occupancy
Pb2   Pb   0.444444444444443   0.388888888888886   0.375000000000000   1.0000000
N2   N   0.111156916334228   0.055618863647084   0.124906640823656   1.0000000
N2   N   0.611028765281632   0.555473568317246   0.120701515330147   1.0000000
N2   N   0.444461947312855   0.055618863647084   0.124906640823656   1.0000000
N2   N   0.944417663690641   0.555536216958572   0.125152727582395   1.0000000
N2   N   0.777777777777779   0.055555555555557   0.124949559229845   1.0000000
N2   N   0.111111111111114   0.722222222222221   0.625029123737694   1.0000000
N2   N   0.444461947312855   0.722176416999107   0.625093359176348   1.0000000
N2   N   0.277859765016087   0.222304568051703   0.629298484669856   1.0000000
N2   N   0.777714469686253   0.722176416999107   0.625093359176348   1.0000000
N2   N   0.611089552449411   0.222243780883922   0.625782793807524   1.0000000
N2   N   0.944442823593528   0.222217343608653   0.624995819969392   1.0000000
N2   N   0.277797116374766   0.722214780065403   0.125152727582395   1.0000000
N2   N   0.111154228434514   0.222243780883922   0.124217206192476   1.0000000
N2   N   0.444444803035616   0.222304568051703   0.120701515330147   1.0000000
N2   N   0.611089552449411   0.722179104898824   0.124217206192476   1.0000000
N2   N   0.944417663690641   0.722214780065403   0.125152727582395   1.0000000
N2   N   0.777774520015128   0.222217343608653   0.125004180030607   1.0000000
N2   N   0.111118553267931   0.888915669642688   0.624847272417608   1.0000000
N2   N   0.444468674251915   0.888901003792618   0.624760294721461   1.0000000
N2   N   0.277859765016087   0.388888530297713   0.629298484669856   1.0000000
N2   N   0.611028765281632   0.388888530297713   0.629298484669856   1.0000000
N2   N   0.777774520015128   0.888890509739801   0.624995819969392   1.0000000
N2   N   0.944432329540711   0.388864659081413   0.624760294721461   1.0000000
N2   N   0.111156916334228   0.388871386020474   0.124906640823656   1.0000000
N2   N   0.277797116374766   0.888915669642688   0.125152727582395   1.0000000
N2   N   0.611115989724686   0.888890509739801   0.125004180030607   1.0000000
N2   N   0.444444444444443   0.388888888888886   0.107175106218765   1.0000000
N2   N   0.944432329540711   0.888901003792618   0.125239705278537   1.0000000
N2   N   0.777714469686253   0.388871386020474   0.124906640823656   1.0000000
N2   N   0.277803966737039   0.555529366596293   0.625679522078645   1.0000000
N2   N   0.111156916334228   0.055618863647084   0.625093359176348   1.0000000
N2   N   0.611028765281632   0.555473568317246   0.629298484669856   1.0000000
N2   N   0.444461947312855   0.055618863647084   0.625093359176348   1.0000000
N2   N   0.944417663690641   0.555536216958572   0.624847272417608   1.0000000
N2   N   0.111118553267931   0.555536216958572   0.125152727582395   1.0000000
N2   N   0.777777777777779   0.055555555555557   0.625050440770157   1.0000000
N2   N   0.277803966737040   0.055607933474077   0.124320477921358   1.0000000
N2   N   0.444444803035616   0.555473568317246   0.120701515330147   1.0000000
N2   N   0.777725399859257   0.555529366596293   0.124320477921358   1.0000000
N2   N   0.611115989724686   0.055558813318209   0.125004180030607   1.0000000
N2   N   0.444444803035616   0.555473568317246   0.629298484669856   1.0000000
N2   N   0.944442823593528   0.055558813318209   0.125004180030607   1.0000000
N2   N   0.277797116374766   0.722214780065403   0.624847272417608   1.0000000
N2   N   0.111154228434514   0.222243780883922   0.625782793807524   1.0000000
N2   N   0.444444803035616   0.222304568051703   0.629298484669856   1.0000000
N2   N   0.611089552449411   0.722179104898824   0.625782793807524   1.0000000
N2   N   0.944417663690641   0.722214780065403   0.624847272417608   1.0000000
N2   N   0.777774520015128   0.222217343608653   0.624995819969392   1.0000000
N2   N   0.111111111111114   0.722222222222221   0.124970876262311   1.0000000
N2   N   0.444461947312855   0.722176416999107   0.124906640823656   1.0000000
N2   N   0.277859765016087   0.222304568051703   0.120701515330147   1.0000000
N2   N   0.777714469686253   0.722176416999107   0.124906640823656   1.0000000
N2   N   0.611089552449411   0.222243780883922   0.124217206192476   1.0000000
N2   N   0.944442823593528   0.222217343608653   0.125004180030607   1.0000000
N2   N   0.111156916334228   0.388871386020474   0.625093359176348   1.0000000
N2   N   0.277797116374766   0.888915669642688   0.624847272417608   1.0000000
N2   N   0.611115989724686   0.888890509739801   0.624995819969392   1.0000000
N2   N   0.444444444444443   0.388888888888886   0.642824893781234   1.0000000
N2   N   0.944432329540711   0.888901003792618   0.624760294721461   1.0000000
N2   N   0.111118553267931   0.888915669642688   0.125152727582395   1.0000000
N2   N   0.777714469686253   0.388871386020474   0.625093359176348   1.0000000
N2   N   0.444468674251915   0.888901003792618   0.125239705278537   1.0000000
N2   N   0.277859765016087   0.388888530297713   0.120701515330147   1.0000000
N2   N   0.277803966737040   0.555529366596293   0.124320477921358   1.0000000
N2   N   0.611028765281632   0.388888530297713   0.120701515330147   1.0000000
N2   N   0.777774520015128   0.888890509739801   0.125004180030607   1.0000000
N2   N   0.944432329540711   0.388864659081413   0.125239705278537   1.0000000
N2   N   0.111118553267931   0.555536216958572   0.624847272417608   1.0000000
N2   N   0.277803966737040   0.055607933474077   0.625679522078645   1.0000000
N2   N   0.777725399859257   0.555529366596293   0.625679522078645   1.0000000
N2   N   0.611115989724686   0.055558813318209   0.624995819969392   1.0000000
N2   N   0.944442823593528   0.055558813318209   0.624995819969392   1.0000000
N2   N   0.053574798682361   0.109893246639450   0.375000000000000   1.0000000
N2   N   0.556381036122314   0.612762072244635   0.375000000000000   1.0000000
N2   N   0.386976284131501   0.099413239670492   0.375000000000000   1.0000000
N2   N   0.892915618787051   0.613124476060199   0.375000000000000   1.0000000
N2   N   0.722589035502980   0.110744297830354   0.375000000000000   1.0000000
N2   N   0.055561037801046   0.777772295532291   0.875000000000000   1.0000000
N2   N   0.388890378120228   0.777781847739085   0.875000000000000   1.0000000
N2   N   0.222217143309742   0.277775238321539   0.875000000000000   1.0000000
N2   N   0.722230005705739   0.777774205172433   0.875000000000000   1.0000000
N2   N   0.555558095011794   0.277775238321539   0.875000000000000   1.0000000
N2   N   0.888889010915968   0.277778021831946   0.875000000000000   1.0000000
N2   N   0.221433240305993   0.777383286819663   0.375000000000000   1.0000000
N2   N   0.053574798682361   0.277014885376245   0.375000000000000   1.0000000
N2   N   0.368897257493520   0.237794514987046   0.375000000000000   1.0000000
N2   N   0.556318447957090   0.779758534650979   0.375000000000000   1.0000000
N2   N   0.892223553705591   0.780466927788756   0.375000000000000   1.0000000
N2   N   0.723440086693886   0.277014885376246   0.375000000000000   1.0000000
N2   N   0.055551485594247   0.944441863714474   0.875000000000000   1.0000000
N2   N   0.388890378120228   0.944441863714474   0.875000000000000   1.0000000
N2   N   0.222189984623871   0.444456773554125   0.875000000000000   1.0000000
N2   N   0.555650110352869   0.444491721843099   0.875000000000000   1.0000000
N2   N   0.722225288231776   0.944450576463549   0.875000000000000   1.0000000
N2   N   0.888891469618855   0.444442955213100   0.875000000000000   1.0000000
N2   N   0.052866405544584   0.445089959250177   0.375000000000000   1.0000000
N2   N   0.220208857273138   0.940417714546278   0.375000000000000   1.0000000
N2   N   0.556132669090042   0.944733001211681   0.375000000000000   1.0000000
N2   N   0.368897257493520   0.464436075839809   0.375000000000000   1.0000000
N2   N   0.888600332121648   0.944733001211681   0.375000000000000   1.0000000
N2   N   0.733920093662839   0.446357049201828   0.375000000000000   1.0000000
N2   N   0.222211063363701   0.611122269969637   0.875000000000000   1.0000000
N2   N   0.055559128160903   0.111103327627596   0.875000000000000   1.0000000
N2   N   0.555558095011794   0.611116190023593   0.875000000000000   1.0000000
N2   N   0.388876559779203   0.111066544403081   0.875000000000000   1.0000000
N2   N   0.888911206605932   0.611122269969637   0.875000000000000   1.0000000
N2   N   0.055950046513672   0.611900093027344   0.375000000000000   1.0000000
N2   N   0.722225288231776   0.111108045101561   0.875000000000000   1.0000000
N2   N   0.212436955538984   0.099413239670492   0.375000000000000   1.0000000
N2   N   0.386976284131501   0.620896377794348   0.375000000000000   1.0000000
N2   N   0.733920093662839   0.620896377794348   0.375000000000000   1.0000000
N2   N   0.556318447957090   0.109893246639450   0.375000000000000   1.0000000
N2   N   0.388876559779203   0.611143348709467   0.875000000000000   1.0000000
N2   N   0.888155262327364   0.110744297830354   0.375000000000000   1.0000000
N2   N   0.222211257731244   0.777772295532291   0.875000000000000   1.0000000
N2   N   0.055559128160903   0.277789133866641   0.875000000000000   1.0000000
N2   N   0.388841611490230   0.277683222980465   0.875000000000000   1.0000000
N2   N   0.555544199466693   0.777774205172433   0.875000000000000   1.0000000
N2   N   0.888891469618855   0.777781847739085   0.875000000000000   1.0000000
N2   N   0.722230005705739   0.277789133866641   0.875000000000000   1.0000000
N2   N   0.055950046513672   0.777383286819663   0.375000000000000   1.0000000
N2   N   0.388243374083151   0.780466927788756   0.375000000000000   1.0000000
N2   N   0.220571261088701   0.276952297211018   0.375000000000000   1.0000000
N2   N   0.723440086693886   0.779758534650979   0.375000000000000   1.0000000
N2   N   0.556381036122314   0.276952297211018   0.375000000000000   1.0000000
N2   N   0.888600332121648   0.277200664243295   0.375000000000000   1.0000000
N2   N   0.055551485594247   0.444442955213100   0.875000000000000   1.0000000
N2   N   0.222211063363701   0.944422126727397   0.875000000000000   1.0000000
N2   N   0.555555311501397   0.944444322417360   0.875000000000000   1.0000000
N2   N   0.388841611490230   0.444491721843099   0.875000000000000   1.0000000
N2   N   0.888889010915968   0.944444322417360   0.875000000000000   1.0000000
N2   N   0.052866405544584   0.941109779627738   0.375000000000000   1.0000000
N2   N   0.722266788930254   0.444456773554125   0.875000000000000   1.0000000
N2   N   0.388243374083151   0.941109779627738   0.375000000000000   1.0000000
N2   N   0.212436955538984   0.446357049201828   0.375000000000000   1.0000000
N2   N   0.220208857273138   0.613124476060199   0.375000000000000   1.0000000
N2   N   0.595538818346289   0.464436075839809   0.375000000000000   1.0000000
N2   N   0.722589035502980   0.945178071005965   0.375000000000000   1.0000000
N2   N   0.892223553705591   0.445089959250177   0.375000000000000   1.0000000
N2   N   0.055561037801046   0.611122075602094   0.875000000000000   1.0000000
N2   N   0.222189984623871   0.111066544403081   0.875000000000000   1.0000000
N2   N   0.722266788930254   0.611143348709467   0.875000000000000   1.0000000
N2   N   0.555544199466693   0.111103327627596   0.875000000000000   1.0000000
N2   N   0.888882756869779   0.111108045101561   0.875000000000000   1.0000000
B2   B   0.105028956236056   0.050026366333889   0.375000000000000   1.0000000
B2   B   0.624744998119509   0.566546590085676   0.375000000000000   1.0000000
B2   B   0.444997410097833   0.050026366333889   0.375000000000000   1.0000000
B2   B   0.946134525852537   0.556054047757580   0.375000000000000   1.0000000
B2   B   0.777777777777779   0.055555555555557   0.375000000000000   1.0000000
B2   B   0.111111111111114   0.722222222222221   0.875000000000000   1.0000000
B2   B   0.444428023563346   0.722176218339340   0.875000000000000   1.0000000
B2   B   0.277846484909646   0.222296904434979   0.875000000000000   1.0000000
B2   B   0.777748194775992   0.722176218339340   0.875000000000000   1.0000000
B2   B   0.611041428464210   0.222291904869124   0.875000000000000   1.0000000
B2   B   0.944450852494334   0.222266196706431   0.875000000000000   1.0000000
B2   B   0.277279285575759   0.723413811428292   0.375000000000000   1.0000000
B2   B   0.109815603134470   0.221574468233899   0.375000000000000   1.0000000
B2   B   0.441801591966170   0.208588335213828   0.375000000000000   1.0000000
B2   B   0.611758865099437   0.723517730198866   0.375000000000000   1.0000000
B2   B   0.946134525852537   0.723413811428292   0.375000000000000   1.0000000
B2   B   0.777956641704964   0.221413391615341   0.375000000000000   1.0000000
B2   B   0.111169628398439   0.888926422768523   0.875000000000000   1.0000000
B2   B   0.444485040049208   0.888909186691269   0.875000000000000   1.0000000
B2   B   0.277846484909646   0.388882913807995   0.875000000000000   1.0000000
B2   B   0.611036428898358   0.388882913807995   0.875000000000000   1.0000000
B2   B   0.777815344212093   0.888882480838995   0.875000000000000   1.0000000
B2   B   0.944424146642059   0.388848293284121   0.875000000000000   1.0000000
B2   B   0.105028956236056   0.388335923235496   0.375000000000000   1.0000000
B2   B   0.277279285575759   0.887198807480792   0.375000000000000   1.0000000
B2   B   0.611919941717997   0.889876583422945   0.375000000000000   1.0000000
B2   B   0.944123961960060   0.889209371373268   0.375000000000000   1.0000000
B2   B   0.783306966999446   0.388335923235496   0.375000000000000   1.0000000
B2   B   0.277770931681847   0.555562401651485   0.875000000000000   1.0000000
B2   B   0.111157114993997   0.055585138557344   0.875000000000000   1.0000000
B2   B   0.611036428898358   0.555486848423695   0.875000000000000   1.0000000
B2   B   0.444428023563346   0.055585138557344   0.875000000000000   1.0000000
B2   B   0.944406910564806   0.555576538963238   0.875000000000000   1.0000000
B2   B   0.109919521905041   0.556054047757580   0.375000000000000   1.0000000
B2   B   0.777777777777779   0.055555555555557   0.875000000000000   1.0000000
B2   B   0.274962858266440   0.049925716532879   0.375000000000000   1.0000000
B2   B   0.441801591966170   0.566546590085676   0.375000000000000   1.0000000
B2   B   0.783407616800456   0.558370475066896   0.375000000000000   1.0000000
B2   B   0.611919941717997   0.055376691628378   0.375000000000000   1.0000000
B2   B   0.444450419525333   0.555486848423695   0.875000000000000   1.0000000
B2   B   0.943456749910384   0.055376691628378   0.375000000000000   1.0000000
B2   B   0.277756794370095   0.722163704934895   0.875000000000000   1.0000000
B2   B   0.111250476404919   0.222291904869124   0.875000000000000   1.0000000
B2   B   0.444450419525333   0.222296904434979   0.875000000000000   1.0000000
B2   B   0.611041428464210   0.722082856928416   0.875000000000000   1.0000000
B2   B   0.944406910564806   0.722163704934895   0.875000000000000   1.0000000
B2   B   0.777815344212093   0.222266196706431   0.875000000000000   1.0000000
B2   B   0.111111111111114   0.722222222222221   0.375000000000000   1.0000000
B2   B   0.444997410097832   0.728304377097275   0.375000000000000   1.0000000
B2   B   0.266786743247655   0.208588335213828   0.375000000000000   1.0000000
B2   B   0.783306966999446   0.728304377097275   0.375000000000000   1.0000000
B2   B   0.611758865099437   0.221574468233899   0.375000000000000   1.0000000
B2   B   0.943456749910384   0.221413391615341   0.375000000000000   1.0000000
B2   B   0.111157114993997   0.388905309769982   0.875000000000000   1.0000000
B2   B   0.277756794370095   0.888926422768523   0.875000000000000   1.0000000
B2   B   0.611067136626906   0.888882480838995   0.875000000000000   1.0000000
B2   B   0.444444444444443   0.388888888888886   0.875000000000000   1.0000000
B2   B   0.944424146642059   0.888909186691269   0.875000000000000   1.0000000
B2   B   0.109919521905041   0.887198807480792   0.375000000000000   1.0000000
B2   B   0.777748194775992   0.388905309769982   0.875000000000000   1.0000000
B2   B   0.445085409413204   0.889209371373268   0.375000000000000   1.0000000
B2   B   0.266786743247655   0.391531741367159   0.375000000000000   1.0000000
B2   B   0.274962858266440   0.558370475066896   0.375000000000000   1.0000000
B2   B   0.624744998119509   0.391531741367159   0.375000000000000   1.0000000
B2   B   0.777956641704964   0.889876583422945   0.375000000000000   1.0000000
B2   B   0.944123961960060   0.388247923920125   0.375000000000000   1.0000000
B2   B   0.111169628398439   0.555576538963238   0.875000000000000   1.0000000
B2   B   0.277770931681847   0.055541863363697   0.875000000000000   1.0000000
B2   B   0.777791469969641   0.555562401651485   0.875000000000000   1.0000000
B2   B   0.611067136626906   0.055517989121240   0.875000000000000   1.0000000
B2   B   0.944450852494334   0.055517989121240   0.875000000000000   1.0000000
B2   B   0.055677544227616   0.111193511587932   0.124864511114506   1.0000000
B2   B   0.555432776561104   0.610865553122199   0.122031154995889   1.0000000
B2   B   0.388990220997492   0.111401564202233   0.123751506753301   1.0000000
B2   B   0.888726382545306   0.611029857939325   0.125056968945589   1.0000000
B2   B   0.722224739904398   0.111108593428934   0.125013123163076   1.0000000
B2   B   0.055549029126603   0.777784304206735   0.624882064232813   1.0000000
B2   B   0.388956821376652   0.777705464533212   0.624736900325475   1.0000000
B2   B   0.222467780211138   0.277900556772236   0.627968845004110   1.0000000
B2   B   0.722139821745400   0.777655789105721   0.625135488885497   1.0000000
B2   B   0.555432776561104   0.277900556772236   0.627968845004110   1.0000000
B2   B   0.888882717774828   0.277765435549657   0.624855724540648   1.0000000
B2   B   0.222235275080129   0.777784304206735   0.125117935767191   1.0000000
B2   B   0.055677544227616   0.277817365973018   0.124864511114506   1.0000000
B2   B   0.389175152425028   0.278350304850065   0.117297980590717   1.0000000
B2   B   0.555515967360315   0.777655789105721   0.124864511114506   1.0000000
B2   B   0.888748643156555   0.777705464533212   0.125263099674528   1.0000000
B2   B   0.722139821745400   0.277817365973018   0.124864511114506   1.0000000
B2   B   0.055627868800120   0.944584690176773   0.624736900325475   1.0000000
B2   B   0.388956821376652   0.944584690176773   0.624736900325475   1.0000000
B2   B   0.222411343204731   0.444343112335836   0.626248493246706   1.0000000
B2   B   0.554983028483272   0.444158180908300   0.632702019409280   1.0000000
B2   B   0.722224739904398   0.944449479808805   0.624986876836924   1.0000000
B2   B   0.888748643156555   0.444376511956677   0.624736900325475   1.0000000
B2   B   0.055627868800120   0.444376511956677   0.125263099674528   1.0000000
B2   B   0.222303475394011   0.944606950788023   0.125056968945589   1.0000000
B2   B   0.555567897783679   0.944450615558500   0.125144275459352   1.0000000
B2   B   0.389175152425028   0.444158180908300   0.117297980590717   1.0000000
B2   B   0.888882717774828   0.944450615558500   0.125144275459352   1.0000000
B2   B   0.721931769131102   0.444343112335836   0.123751506753301   1.0000000
B2   B   0.222303475394011   0.611029857939325   0.624943031054409   1.0000000
B2   B   0.055677544227616   0.111193511587932   0.625135488885497   1.0000000
B2   B   0.555432776561104   0.610865553122199   0.627968845004110   1.0000000
B2   B   0.388990220997492   0.111401564202233   0.626248493246706   1.0000000
B2   B   0.888726382545306   0.611029857939325   0.624943031054409   1.0000000
B2   B   0.055549029126603   0.611098058253205   0.125117935767191   1.0000000
B2   B   0.722224739904398   0.111108593428934   0.624986876836924   1.0000000
B2   B   0.222411343204731   0.111401564202233   0.123751506753301   1.0000000
B2   B   0.388990220997492   0.610921990128607   0.123751506753301   1.0000000
B2   B   0.721931769131102   0.610921990128607   0.123751506753301   1.0000000
B2   B   0.555515967360315   0.111193511587932   0.124864511114506   1.0000000
B2   B   0.388990220997492   0.610921990128607   0.626248493246706   1.0000000
B2   B   0.888883853524523   0.111108593428934   0.125013123163076   1.0000000
B2   B   0.222235275080129   0.777784304206735   0.624882064232813   1.0000000
B2   B   0.055677544227616   0.277817365973018   0.625135488885497   1.0000000
B2   B   0.389175152425028   0.278350304850065   0.632702019409280   1.0000000
B2   B   0.555515967360315   0.777655789105721   0.625135488885497   1.0000000
B2   B   0.888748643156555   0.777705464533212   0.624736900325475   1.0000000
B2   B   0.722139821745400   0.277817365973018   0.625135488885497   1.0000000
B2   B   0.055549029126603   0.777784304206735   0.125117935767191   1.0000000
B2   B   0.388956821376652   0.777705464533212   0.125263099674528   1.0000000
B2   B   0.222467780211138   0.277900556772236   0.122031154995889   1.0000000
B2   B   0.722139821745400   0.777655789105721   0.124864511114506   1.0000000
B2   B   0.555432776561104   0.277900556772236   0.122031154995889   1.0000000
B2   B   0.888882717774828   0.277765435549657   0.125144275459352   1.0000000
B2   B   0.055627868800120   0.444376511956677   0.624736900325475   1.0000000
B2   B   0.222303475394011   0.944606950788023   0.624943031054409   1.0000000
B2   B   0.555567897783679   0.944450615558500   0.624855724540648   1.0000000
B2   B   0.389175152425028   0.444158180908300   0.632702019409280   1.0000000
B2   B   0.888882717774828   0.944450615558500   0.624855724540648   1.0000000
B2   B   0.055627868800120   0.944584690176773   0.125263099674528   1.0000000
B2   B   0.721931769131102   0.444343112335836   0.626248493246706   1.0000000
B2   B   0.388956821376652   0.944584690176773   0.125263099674528   1.0000000
B2   B   0.222411343204731   0.444343112335836   0.123751506753301   1.0000000
B2   B   0.222303475394011   0.611029857939325   0.125056968945589   1.0000000
B2   B   0.554983028483272   0.444158180908300   0.117297980590717   1.0000000
B2   B   0.722224739904398   0.944449479808805   0.125013123163076   1.0000000
B2   B   0.888748643156555   0.444376511956677   0.125263099674528   1.0000000
B2   B   0.055549029126603   0.611098058253205   0.624882064232813   1.0000000
B2   B   0.222411343204731   0.111401564202233   0.626248493246706   1.0000000
B2   B   0.721931769131102   0.610921990128607   0.626248493246706   1.0000000
B2   B   0.555515967360315   0.111193511587932   0.625135488885497   1.0000000
B2   B   0.888883853524523   0.111108593428934   0.624986876836924   1.0000000


