data_1
_audit_creation_method   'vasp2cif'
_cell_length_a    17.52789999999977
_cell_length_b    17.52789999999977
_cell_length_c    15.0
_cell_angle_alpha    90.0
_cell_angle_beta    90.0
_cell_angle_gamma    119.99999999999916

_symmetry_space_group_name_H-M    'P 1'
loop_
_atom_site_label
_atom_site_type_symbol
_atom_site_fract_x
_atom_site_fract_y
_atom_site_fract_z
_atom_site_occupancy
As2   As   0.495018159250369   0.504983242666631   0.178710178131789   1.0000000
B2   B   0.905383375111547   0.952447906005728   0.109921463225240   1.0000000
B2   B   0.904890325903467   0.095111695292531   0.110971386666784   1.0000000
B2   B   0.904660150048488   0.237976410899072   0.110873238786213   1.0000000
B2   B   0.904556947866472   0.380781890947942   0.110811270609991   1.0000000
B2   B   0.904277671819988   0.523408283508859   0.110833544458792   1.0000000
B2   B   0.904725507271991   0.666132350143370   0.109071905711047   1.0000000
B2   B   0.905296764104110   0.809383985677109   0.108235924580817   1.0000000
B2   B   0.048041839009730   0.951960182186269   0.111055320527148   1.0000000
B2   B   0.047554115190280   0.094618646084451   0.109921463225240   1.0000000
B2   B   0.047394635328978   0.237568992806385   0.108720259496298   1.0000000
B2   B   0.047591706009643   0.380474353375522   0.109390331905938   1.0000000
B2   B   0.047980883307736   0.523202133579051   0.110193284228012   1.0000000
B2   B   0.048103548842866   0.665968057553444   0.110781924437474   1.0000000
B2   B   0.048094319779416   0.808950531408204   0.110898505385250   1.0000000
B2   B   0.191051489787803   0.951907701416589   0.110898505385250   1.0000000
B2   B   0.190618035518894   0.094705257091878   0.108235924580817   1.0000000
B2   B   0.189530603591432   0.236659466584934   0.104174116949088   1.0000000
B2   B   0.190260382334594   0.379948026029565   0.107157330261555   1.0000000
B2   B   0.191621139028866   0.522691274805518   0.110825397206965   1.0000000
B2   B   0.191603721433154   0.665633005867364   0.111399161845986   1.0000000
B2   B   0.191249297856212   0.808752723339790   0.111269957192600   1.0000000
B2   B   0.334033963643559   0.951898472353141   0.110781924437474   1.0000000
B2   B   0.333869671053628   0.095276513924004   0.109071905711047   1.0000000
B2   B   0.333225014690152   0.237843541466286   0.103193024381485   1.0000000
B2   B   0.331135184459215   0.378434789475969   0.107556832810014   1.0000000
B2   B   0.335629880807245   0.521081839766813   0.118874981168124   1.0000000
B2   B   0.335217928079587   0.664784093117416   0.115404352694577   1.0000000
B2   B   0.334369015329640   0.808398299762847   0.111399161845986   1.0000000
B2   B   0.476799887617947   0.952021137888267   0.110193284228012   1.0000000
B2   B   0.476593737688138   0.095724349376010   0.110833544458792   1.0000000
B2   B   0.476427404252241   0.239809693713144   0.111555882762593   1.0000000
B2   B   0.475418384073680   0.383782642988301   0.110177567527921   1.0000000
B2   B   0.478920181430187   0.664372140389754   0.118874981168124   1.0000000
B2   B   0.477310746391483   0.808380882167137   0.110825397206965   1.0000000
B2   B   0.619527667820488   0.952410315186366   0.109390331905938   1.0000000
B2   B   0.619220130248059   0.095445073329524   0.110811270609991   1.0000000
B2   B   0.618999083435409   0.238678058169841   0.112767820597109   1.0000000
B2   B   0.618349668435829   0.381652352760177   0.116111071364937   1.0000000
B2   B   0.616219378207702   0.524583637123313   0.110177567527921   1.0000000
B2   B   0.621567231720034   0.668866836737789   0.107556832810014   1.0000000
B2   B   0.620053995166439   0.809741638861414   0.107157330261555   1.0000000
B2   B   0.762433028389622   0.952607385867025   0.108720259496298   1.0000000
B2   B   0.762025610296932   0.095341871147507   0.110873238786213   1.0000000
B2   B   0.761760147462063   0.238241873733936   0.111611113074086   1.0000000
B2   B   0.761323963026165   0.381002937760589   0.112767820597109   1.0000000
B2   B   0.760192327482863   0.523574616944751   0.111555882762593   1.0000000
B2   B   0.762158479729717   0.666777006506845   0.103193024381485   1.0000000
B2   B   0.763342554611067   0.810471417604574   0.104174116949088   1.0000000
N2   N   0.953016743776674   0.904714486122444   0.110348144333130   1.0000000
N2   N   0.952532817855861   0.047468584062147   0.111196398070824   1.0000000
N2   N   0.952138569784589   0.190210478863476   0.110657612245710   1.0000000
N2   N   0.952192559247096   0.333118367923188   0.110356110763164   1.0000000
N2   N   0.952407845363860   0.475952897303904   0.110493984985041   1.0000000
N2   N   0.952778413353892   0.618682137256493   0.110464686810556   1.0000000
N2   N   0.953014071003050   0.761633343864737   0.109465348100639   1.0000000
N2   N   0.095756362005699   0.904245039912302   0.111395715440108   1.0000000
N2   N   0.095286915795559   0.046984658141326   0.110348144333130   1.0000000
N2   N   0.094344818605538   0.189335301070365   0.107608430367239   1.0000000
N2   N   0.094651952063574   0.332581320479401   0.108077140808137   1.0000000
N2   N   0.095676596939449   0.475639787912571   0.109572921161248   1.0000000
N2   N   0.095979188191147   0.618462450439269   0.110607340974570   1.0000000
N2   N   0.095905631192949   0.761321969118803   0.111148203394049   1.0000000
N2   N   0.238679432799205   0.904095770725050   0.111148203394049   1.0000000
N2   N   0.238368058053262   0.046987330914961   0.109465348100639   1.0000000
N2   N   0.237417749953060   0.189256297343188   0.104462270248916   1.0000000
N2   N   0.235792687151673   0.330892610960739   0.102764451058464   1.0000000
N2   N   0.238840612965650   0.474989076445410   0.110658525589130   1.0000000
N2   N   0.239292537099193   0.618079895129507   0.112509452662844   1.0000000
N2   N   0.238929715922864   0.761071685995142   0.111401289389675   1.0000000
N2   N   0.381538951478734   0.904022213726847   0.110607340974570   1.0000000
N2   N   0.381319264661506   0.047222988564109   0.110464686810556   1.0000000
N2   N   0.381024869842674   0.190124595166243   0.107381945375304   1.0000000
N2   N   0.379477147673611   0.331814084869332   0.100449791281187   1.0000000
N2   N   0.378246296098478   0.469986251543070   0.123278020107629   1.0000000
N2   N   0.382699023450218   0.617302378467775   0.121051377876955   1.0000000
N2   N   0.381921506788494   0.760708864818812   0.112509452662844   1.0000000
N2   N   0.524361614004421   0.904324804978549   0.109572921161248   1.0000000
N2   N   0.524048504613085   0.047593556554149   0.110493984985041   1.0000000
N2   N   0.523833372129391   0.191102879853045   0.111890898238955   1.0000000
N2   N   0.523543479896216   0.335187345409321   0.115223428679800   1.0000000
N2   N   0.530015150373931   0.621755105819526   0.123278020107629   1.0000000
N2   N   0.525012325471582   0.761160788952355   0.110658525589130   1.0000000
N2   N   0.667420081437594   0.905349449854425   0.108077140808137   1.0000000
N2   N   0.666883033993818   0.047808842670905   0.110356110763164   1.0000000
N2   N   0.666622017580606   0.190652758425954   0.111641468927620   1.0000000
N2   N   0.666396705525453   0.333604696391542   0.114482158890867   1.0000000
N2   N   0.664814056507672   0.476457922020787   0.115223428679800   1.0000000
N2   N   0.668187317047672   0.620524254244393   0.100449791281187   1.0000000
N2   N   0.669108790956263   0.764208714766331   0.102764451058464   1.0000000
N2   N   0.810666100847631   0.905656583312462   0.107608430367239   1.0000000
N2   N   0.809790923054524   0.047862832133424   0.110657612245710   1.0000000
N2   N   0.809460880524935   0.190540521393064   0.111327638103162   1.0000000
N2   N   0.809348643492039   0.333379384336393   0.111641468927620   1.0000000
N2   N   0.808898522064958   0.476168029787603   0.111890898238955   1.0000000
N2   N   0.809876806751754   0.618976532075321   0.107381945375304   1.0000000
N2   N   0.810745104574820   0.762583651964943   0.104462270248916   1.0000000


