data_1
_audit_creation_method   'vasp2cif'
_cell_length_a    17.52789999999977
_cell_length_b    17.52789999999977
_cell_length_c    15.0
_cell_angle_alpha    90.0
_cell_angle_beta    90.0
_cell_angle_gamma    119.99999999999916

_symmetry_space_group_name_H-M    'P 1'
loop_
_atom_site_label
_atom_site_type_symbol
_atom_site_fract_x
_atom_site_fract_y
_atom_site_fract_z
_atom_site_occupancy
Si2   Si   0.438402125592880   0.504916265420441   0.111140596544525   1.0000000
B2   B   0.904564742092928   0.952288896367972   0.110991786956314   1.0000000
B2   B   0.906613670340346   0.096467122774306   0.111035541213145   1.0000000
B2   B   0.907299378586360   0.239364036138682   0.111090692395284   1.0000000
B2   B   0.906613670340346   0.381575241257037   0.111035541213145   1.0000000
B2   B   0.904564742092928   0.523706250972960   0.110991786956314   1.0000000
B2   B   0.902947554931879   0.665903957639707   0.111033656190363   1.0000000
B2   B   0.902947554931879   0.808474002540173   0.111033656190363   1.0000000
B2   B   0.046537454115763   0.951377733266072   0.110999411868058   1.0000000
B2   B   0.048557842848792   0.095517688583746   0.111010012516299   1.0000000
B2   B   0.050962439098046   0.239915789073991   0.111031687662208   1.0000000
B2   B   0.050962439098046   0.382477055271055   0.111031687662208   1.0000000
B2   B   0.048557842848792   0.524470559513042   0.111010012516299   1.0000000
B2   B   0.046537454115763   0.666591837653689   0.110999411868058   1.0000000
B2   B   0.046166160240869   0.808799138522437   0.110974307342691   1.0000000
B2   B   0.189431387413316   0.951249568058469   0.110998361353051   1.0000000
B2   B   0.189772008756213   0.093306936906180   0.111050475190422   1.0000000
B2   B   0.193012684849801   0.238348405167787   0.111025093947552   1.0000000
B2   B   0.196482007547953   0.383956206397476   0.111037384726828   1.0000000
B2   B   0.193012684849801   0.526094684930016   0.111025093947552   1.0000000
B2   B   0.189772008756213   0.667895477098028   0.111050475190422   1.0000000
B2   B   0.189431387413316   0.809613936158850   0.110998361353051   1.0000000
B2   B   0.332954285286877   0.952193201044940   0.111012215910152   1.0000000
B2   B   0.332950306055579   0.092473575459216   0.111074851825331   1.0000000
B2   B   0.332808256953646   0.231970519065787   0.111035850186346   1.0000000
B2   B   0.338760247167918   0.375352194328829   0.111066739439957   1.0000000
B2   B   0.338760247167918   0.534838458086088   0.111066739439957   1.0000000
B2   B   0.332808256953646   0.672268143134859   0.111035850186346   1.0000000
B2   B   0.332950306055579   0.811907135843363   0.111074851825331   1.0000000
B2   B   0.476821395965037   0.953678734245402   0.111009246992626   1.0000000
B2   B   0.476821395965037   0.094573066966636   0.111009246992626   1.0000000
B2   B   0.476691101166032   0.235382303659700   0.111033571482307   1.0000000
B2   B   0.476435779005793   0.375836517354880   0.111012134113115   1.0000000
B2   B   0.476435779005793   0.672029666897911   0.111012134113115   1.0000000
B2   B   0.476691101166032   0.812739202753339   0.111033571482307   1.0000000
B2   B   0.620352045759992   0.953933195361593   0.111005752220383   1.0000000
B2   B   0.620474095979860   0.095951394835425   0.110987957058734   1.0000000
B2   B   0.620352045759992   0.237849255645399   0.111005752220383   1.0000000
B2   B   0.619612556457235   0.379839130197855   0.111016463292350   1.0000000
B2   B   0.614687694998719   0.521275052071528   0.111070462361669   1.0000000
B2   B   0.614687694998719   0.664843048175185   0.111070462361669   1.0000000
B2   B   0.619612556457235   0.811203831506380   0.111016463292350   1.0000000
B2   B   0.762945224089653   0.953400297874922   0.110995465168149   1.0000000
B2   B   0.763746104463479   0.096409316855995   0.111034819005424   1.0000000
B2   B   0.763746104463479   0.238765481298481   0.111034819005424   1.0000000
B2   B   0.762945224089653   0.380975331461731   0.110995465168149   1.0000000
B2   B   0.760331218560778   0.522988107559188   0.111045252821537   1.0000000
B2   B   0.758692384397161   0.665061394822579   0.111079406177308   1.0000000
B2   B   0.760331218560778   0.808773516249593   0.111045252821537   1.0000000
N2   N   0.951279234228651   0.903894367691338   0.110986282960012   1.0000000
N2   N   0.953204236670413   0.047941252620579   0.110983139553490   1.0000000
N2   N   0.955254732173677   0.192042425585360   0.111042374587984   1.0000000
N2   N   0.955254732173677   0.334639288706315   0.111042374587984   1.0000000
N2   N   0.953204236670413   0.476689966167832   0.110983139553490   1.0000000
N2   N   0.951279234228651   0.618813560212309   0.110986282960012   1.0000000
N2   N   0.950775730816775   0.761102212245888   0.111002471283191   1.0000000
N2   N   0.094114389039079   0.903867911764403   0.110961528031676   1.0000000
N2   N   0.094752573580697   0.046590651676041   0.111005463813515   1.0000000
N2   N   0.097535725508893   0.191258541627718   0.110992069316548   1.0000000
N2   N   0.100131397856884   0.335780045765442   0.111010676739115   1.0000000
N2   N   0.097535725508893   0.477705877555175   0.110992069316548   1.0000000
N2   N   0.094752573580697   0.619590615579659   0.111005463813515   1.0000000
N2   N   0.094114389039079   0.761676882505682   0.110961528031676   1.0000000
N2   N   0.237509951889860   0.904470178560429   0.110970982779217   1.0000000
N2   N   0.237569601520197   0.046010848859597   0.111036983834665   1.0000000
N2   N   0.238081522986488   0.188125053704707   0.111030049150793   1.0000000
N2   N   0.243412753953895   0.334679930025477   0.111019807990528   1.0000000
N2   N   0.243412753953895   0.480161517602411   0.111019807990528   1.0000000
N2   N   0.238081522986488   0.621385162956777   0.111030049150793   1.0000000
N2   N   0.237569601520197   0.762987446335604   0.111036983834665   1.0000000
N2   N   0.381372552609882   0.906249063183889   0.111014067378892   1.0000000
N2   N   0.381372552609882   0.046552183100996   0.111014067378892   1.0000000
N2   N   0.381382227365222   0.186526203518025   0.111055181030965   1.0000000
N2   N   0.381389059636556   0.325213217862783   0.110974793808383   1.0000000
N2   N   0.381389059636556   0.627604535448768   0.110974793808383   1.0000000
N2   N   0.381382227365222   0.766284717522201   0.111055181030965   1.0000000
N2   N   0.525047351949852   0.907165793306831   0.111010377411294   1.0000000
N2   N   0.525119989653195   0.048273485886102   0.110961631555203   1.0000000
N2   N   0.525047351949852   0.189310252318025   0.111010377411294   1.0000000
N2   N   0.524745502051912   0.330204177401684   0.110994762331884   1.0000000
N2   N   0.518793898789692   0.470535186127839   0.111046353232451   1.0000000
N2   N   0.518793898789692   0.619687406336849   0.111046353232451   1.0000000
N2   N   0.524745502051912   0.765970018325231   0.110994762331884   1.0000000
N2   N   0.667826007673032   0.906271582218774   0.110986663304366   1.0000000
N2   N   0.668425862520559   0.048896483156063   0.110986937247308   1.0000000
N2   N   0.668425862520559   0.190956361483503   0.110986937247308   1.0000000
N2   N   0.667826007673032   0.332983119129262   0.110986663304366   1.0000000
N2   N   0.664801609766121   0.475057707164529   0.111023437789286   1.0000000
N2   N   0.662593971598406   0.617011332637202   0.111073310664991   1.0000000
N2   N   0.664801609766121   0.761172596276595   0.111023437789286   1.0000000
N2   N   0.809190628034343   0.904544390565980   0.110985550223340   1.0000000
N2   N   0.811245504364625   0.048772582439169   0.111008953872217   1.0000000
N2   N   0.811816181095516   0.191621581606761   0.111053387699500   1.0000000
N2   N   0.811245504364625   0.333899904043460   0.111008953872217   1.0000000
N2   N   0.809190628034343   0.476074931142364   0.110985550223340   1.0000000
N2   N   0.807389857455481   0.618187111936391   0.111053153724421   1.0000000
N2   N   0.807389857455481   0.760631439194094   0.111053153724421   1.0000000


