data_1
_audit_creation_method   'vasp2cif'
_cell_length_a    14.93631414619966
_cell_length_b    14.936314146199727
_cell_length_c    13.341276283792837
_cell_angle_alpha    90.0
_cell_angle_beta    90.0
_cell_angle_gamma    119.99999999999984

_symmetry_space_group_name_H-M    'P 1'
loop_
_atom_site_label
_atom_site_type_symbol
_atom_site_fract_x
_atom_site_fract_y
_atom_site_fract_z
_atom_site_occupancy
P2   P   0.555555555555557   0.444444444444443   0.375000000000000   1.0000000
N2   N   0.111090666662046   0.055549996536947   0.125114704237167   1.0000000
N2   N   0.611160240091856   0.555653813516966   0.123538615320389   1.0000000
N2   N   0.444449008862088   0.055563189890905   0.125294094613497   1.0000000
N2   N   0.944436810109078   0.555550991137901   0.125294094613497   1.0000000
N2   N   0.777782873197388   0.055558103265347   0.124884070015369   1.0000000
N2   N   0.111100411786059   0.722216872559615   0.624767887388182   1.0000000
N2   N   0.444449008862088   0.722219152304548   0.624705905386390   1.0000000
N2   N   0.277744576528931   0.222208506934445   0.625010949825933   1.0000000
N2   N   0.777791493065548   0.722255423471064   0.625010949825933   1.0000000
N2   N   0.611130597072238   0.222208506934445   0.625010949825933   1.0000000
N2   N   0.944441896734715   0.222217126802635   0.625115929984699   1.0000000
N2   N   0.277783127440347   0.722216872559615   0.125232112611976   1.0000000
N2   N   0.111084417222833   0.222208875278045   0.125028718777289   1.0000000
N2   N   0.444452639283905   0.222238611901295   0.125019218298357   1.0000000
N2   N   0.611130597072245   0.722255423471064   0.124989050174100   1.0000000
N2   N   0.944436810109078   0.722219152304548   0.125294094613497   1.0000000
N2   N   0.777791124721990   0.222208875278057   0.125028718777289   1.0000000
N2   N   0.111106802999552   0.888893197000467   0.624787384797104   1.0000000
N2   N   0.444453060667460   0.888893197000467   0.624787384797104   1.0000000
N2   N   0.277744576528931   0.388869402927725   0.625010949825933   1.0000000
N2   N   0.611160240091856   0.388839759908181   0.626461384679502   1.0000000
N2   N   0.777791124721990   0.888915582777219   0.624971281222661   1.0000000
N2   N   0.944450003463110   0.388874003458429   0.624885295762967   1.0000000
N2   N   0.111090666662046   0.388874003458403   0.125114704237183   1.0000000
N2   N   0.277783127440347   0.888899588214023   0.125232112611976   1.0000000
N2   N   0.611125996541763   0.888909333338009   0.125114704237183   1.0000000
N2   N   0.444346186483165   0.388839759908181   0.123538615320373   1.0000000
N2   N   0.944450003463110   0.888909333338009   0.125114704237183   1.0000000
N2   N   0.777791493065548   0.388869402927725   0.124989050174100   1.0000000
N2   N   0.277780847695547   0.555550991137901   0.624705905386390   1.0000000
N2   N   0.111090666662046   0.055549996536942   0.624885295762967   1.0000000
N2   N   0.611160240091856   0.555653813516966   0.626461384679502   1.0000000
N2   N   0.444449008862088   0.055563189890905   0.624705905386390   1.0000000
N2   N   0.944436810109078   0.555550991137901   0.624705905386390   1.0000000
N2   N   0.111106802999552   0.555546939332495   0.125212615202754   1.0000000
N2   N   0.777782873197388   0.055558103265347   0.625115929984699   1.0000000
N2   N   0.277780847695547   0.055563189890905   0.125294094613497   1.0000000
N2   N   0.444452639283905   0.555547360716079   0.125019218298357   1.0000000
N2   N   0.777761388098854   0.555547360716079   0.125019218298357   1.0000000
N2   N   0.611125996541763   0.055549996536947   0.125114704237183   1.0000000
N2   N   0.444452639283905   0.555547360716079   0.624980781701752   1.0000000
N2   N   0.944441896734715   0.055558103265347   0.124884070015369   1.0000000
N2   N   0.277783127440347   0.722216872559615   0.624767887388182   1.0000000
N2   N   0.111084417222833   0.222208875278052   0.624971281222661   1.0000000
N2   N   0.444452639283905   0.222238611901295   0.624980781701752   1.0000000
N2   N   0.611130597072245   0.722255423471064   0.625010949825933   1.0000000
N2   N   0.944436810109078   0.722219152304548   0.624705905386390   1.0000000
N2   N   0.777791124721990   0.222208875278052   0.624971281222661   1.0000000
N2   N   0.111100411786059   0.722216872559615   0.125232112611976   1.0000000
N2   N   0.444449008862088   0.722219152304548   0.125294094613497   1.0000000
N2   N   0.277744576528931   0.222208506934445   0.124989050174100   1.0000000
N2   N   0.777791493065549   0.722255423471064   0.124989050174100   1.0000000
N2   N   0.611130597072238   0.222208506934445   0.124989050174100   1.0000000
N2   N   0.944441896734715   0.222217126802635   0.124884070015369   1.0000000
N2   N   0.111090666662046   0.388874003458429   0.624885295762967   1.0000000
N2   N   0.277783127440347   0.888899588214023   0.624767887388182   1.0000000
N2   N   0.611125996541763   0.888909333338009   0.624885295762967   1.0000000
N2   N   0.444346186483165   0.388839759908181   0.626461384679502   1.0000000
N2   N   0.944450003463110   0.888909333338009   0.624885295762967   1.0000000
N2   N   0.111106802999552   0.888893197000467   0.125212615202760   1.0000000
N2   N   0.777791493065548   0.388869402927725   0.625010949825933   1.0000000
N2   N   0.444453060667453   0.888893197000467   0.125212615202754   1.0000000
N2   N   0.277744576528931   0.388869402927725   0.124989050174100   1.0000000
N2   N   0.277780847695547   0.555550991137901   0.125294094613497   1.0000000
N2   N   0.611160240091856   0.388839759908181   0.123538615320372   1.0000000
N2   N   0.777791124721990   0.888915582777219   0.125028718777289   1.0000000
N2   N   0.944450003463110   0.388874003458429   0.125114704237183   1.0000000
N2   N   0.111106802999552   0.555546939332495   0.624787384797104   1.0000000
N2   N   0.277780847695547   0.055563189890905   0.624705905386390   1.0000000
N2   N   0.777761388098854   0.555547360716079   0.624980781701752   1.0000000
N2   N   0.611125996541763   0.055549996536947   0.624885295762967   1.0000000
N2   N   0.944441896734715   0.055558103265347   0.625115929984699   1.0000000
N2   N   0.054662092326137   0.110515236224850   0.375000000000000   1.0000000
N2   N   0.555620408329492   0.618896165619353   0.375000000000000   1.0000000
N2   N   0.387849779102972   0.109032891539307   0.375000000000000   1.0000000
N2   N   0.890967108460713   0.612150220896993   0.375000000000000   1.0000000
N2   N   0.722519810565268   0.110515236224850   0.375000000000000   1.0000000
N2   N   0.055555351810027   0.777776138284737   0.875000000000000   1.0000000
N2   N   0.388887453141451   0.777776138284737   0.875000000000000   1.0000000
N2   N   0.222231281902700   0.277782307618020   0.875000000000000   1.0000000
N2   N   0.722217692381951   0.777768718097295   0.875000000000000   1.0000000
N2   N   0.555547602176974   0.277772754763622   0.875000000000000   1.0000000
N2   N   0.888892299152727   0.277783795680281   0.875000000000000   1.0000000
N2   N   0.222222222222221   0.777777777777779   0.375000000000000   1.0000000
N2   N   0.054662092326137   0.277480189434658   0.375000000000000   1.0000000
N2   N   0.381103834380673   0.270057576043277   0.375000000000000   1.0000000
N2   N   0.555235432191655   0.780815412713503   0.375000000000000   1.0000000
N2   N   0.892246647188602   0.780815412713503   0.375000000000000   1.0000000
N2   N   0.723649897648250   0.276350102351837   0.375000000000000   1.0000000
N2   N   0.055557538110120   0.944442461889964   0.875000000000000   1.0000000
N2   N   0.388887453141451   0.944444648189925   0.875000000000000   1.0000000
N2   N   0.222224183843948   0.444448850064116   0.875000000000000   1.0000000
N2   N   0.555555555555557   0.444444444444443   0.875000000000000   1.0000000
N2   N   0.722216204319633   0.944441836805669   0.875000000000000   1.0000000
N2   N   0.888891332886832   0.444448850064116   0.875000000000000   1.0000000
N2   N   0.055701253113817   0.444735839560906   0.375000000000000   1.0000000
N2   N   0.221903936178258   0.943608747109872   0.375000000000000   1.0000000
N2   N   0.555264160438941   0.944298746886136   0.375000000000000   1.0000000
N2   N   0.381103834380673   0.444379591670701   0.375000000000000   1.0000000
N2   N   0.889484763775116   0.945337907673879   0.375000000000000   1.0000000
N2   N   0.729942423956597   0.444379591670701   0.375000000000000   1.0000000
N2   N   0.222223861715180   0.611112546858685   0.875000000000000   1.0000000
N2   N   0.055558163194394   0.111107700847415   0.875000000000000   1.0000000
N2   N   0.555547602176974   0.611108180746676   0.875000000000000   1.0000000
N2   N   0.388885944602336   0.111105222538163   0.875000000000000   1.0000000
N2   N   0.888894777461985   0.611114055397420   0.875000000000000   1.0000000
N2   N   0.056391252890179   0.611628522401953   0.375000000000000   1.0000000
N2   N   0.722216204319633   0.111107700847415   0.875000000000000   1.0000000
N2   N   0.219184587286556   0.107753352811573   0.375000000000000   1.0000000
N2   N   0.387849779102972   0.612150220896993   0.375000000000000   1.0000000
N2   N   0.729942423956597   0.618896165619353   0.375000000000000   1.0000000
N2   N   0.555235432191655   0.107753352811573   0.375000000000000   1.0000000
N2   N   0.388885944602336   0.611114055397420   0.875000000000000   1.0000000
N2   N   0.888888888888886   0.111111111111114   0.375000000000000   1.0000000
N2   N   0.222222222222221   0.777777777777779   0.875000000000000   1.0000000
N2   N   0.055558163194394   0.277783795680281   0.875000000000000   1.0000000
N2   N   0.388891819253361   0.277772754763622   0.875000000000000   1.0000000
N2   N   0.555551149935946   0.777775816156149   0.875000000000000   1.0000000
N2   N   0.888891332886832   0.777775816156149   0.875000000000000   1.0000000
N2   N   0.722217692381951   0.277782307618020   0.875000000000000   1.0000000
N2   N   0.056391252890179   0.778096063821679   0.375000000000000   1.0000000
N2   N   0.388371477598160   0.778096063821679   0.375000000000000   1.0000000
N2   N   0.219366871370196   0.276350102351837   0.375000000000000   1.0000000
N2   N   0.723649897648250   0.780633128629661   0.375000000000000   1.0000000
N2   N   0.555620408329492   0.270057576043277   0.375000000000000   1.0000000
N2   N   0.889484763775116   0.277480189434658   0.375000000000000   1.0000000
N2   N   0.055557538110120   0.444448409553539   0.875000000000000   1.0000000
N2   N   0.222223861715180   0.944444648189925   0.875000000000000   1.0000000
N2   N   0.555551590446399   0.944442461889964   0.875000000000000   1.0000000
N2   N   0.388891819253361   0.444452397823144   0.875000000000000   1.0000000
N2   N   0.888892299152727   0.944441836805669   0.875000000000000   1.0000000
N2   N   0.055701253113817   0.944298746886136   0.375000000000000   1.0000000
N2   N   0.722227245236534   0.444452397823144   0.875000000000000   1.0000000
N2   N   0.388371477598160   0.943608747109872   0.375000000000000   1.0000000
N2   N   0.219184587286556   0.444764567808316   0.375000000000000   1.0000000
N2   N   0.221903936178258   0.611628522401953   0.375000000000000   1.0000000
N2   N   0.722519810565268   0.945337907673879   0.375000000000000   1.0000000
N2   N   0.892246647188602   0.444764567808316   0.375000000000000   1.0000000
N2   N   0.055555351810027   0.611112546858685   0.875000000000000   1.0000000
N2   N   0.222224183843948   0.111108667113207   0.875000000000000   1.0000000
N2   N   0.722227245236534   0.611108180746676   0.875000000000000   1.0000000
N2   N   0.555551149935946   0.111108667113207   0.875000000000000   1.0000000
N2   N   0.888888888888886   0.111111111111114   0.875000000000000   1.0000000
B2   B   0.109315103356544   0.054172240741357   0.375000000000000   1.0000000
B2   B   0.621601516576994   0.576536366487073   0.375000000000000   1.0000000
B2   B   0.443943476546363   0.054042231187489   0.375000000000000   1.0000000
B2   B   0.945957768812601   0.556056523453645   0.375000000000000   1.0000000
B2   B   0.778120559335748   0.055726946334505   0.375000000000000   1.0000000
B2   B   0.111062461430150   0.722197897381790   0.875000000000000   1.0000000
B2   B   0.444398414791601   0.722191180373369   0.875000000000000   1.0000000
B2   B   0.277827578506353   0.222283359032224   0.875000000000000   1.0000000
B2   B   0.777716640967784   0.722172421493704   0.875000000000000   1.0000000
B2   B   0.611122447192633   0.222283359032224   0.875000000000000   1.0000000
B2   B   0.944469397907444   0.222272129147951   0.875000000000000   1.0000000
B2   B   0.277581021654936   0.722418978344892   0.375000000000000   1.0000000
B2   B   0.109230960715037   0.221282147024160   0.375000000000000   1.0000000
B2   B   0.443128360075549   0.219590053484313   0.375000000000000   1.0000000
B2   B   0.612047632936137   0.728096161326951   0.375000000000000   1.0000000
B2   B   0.945957768812601   0.723234578692193   0.375000000000000   1.0000000
B2   B   0.778717852975718   0.221282147024160   0.375000000000000   1.0000000
B2   B   0.111111937800411   0.888888062199573   0.875000000000000   1.0000000
B2   B   0.444442791065912   0.888888062199573   0.875000000000000   1.0000000
B2   B   0.277827578506353   0.388877552807339   0.875000000000000   1.0000000
B2   B   0.611117999034139   0.388882000965800   0.875000000000000   1.0000000
B2   B   0.777770151361839   0.888873636057189   0.875000000000000   1.0000000
B2   B   0.944462969278001   0.388871717312475   0.875000000000000   1.0000000
B2   B   0.109315103356549   0.388476195948493   0.375000000000000   1.0000000
B2   B   0.277581021654936   0.888495376643200   0.375000000000000   1.0000000
B2   B   0.611523804051576   0.890684896643461   0.375000000000000   1.0000000
B2   B   0.423463633512860   0.378398483423128   0.375000000000000   1.0000000
B2   B   0.945827759258623   0.890684896643461   0.375000000000000   1.0000000
B2   B   0.782715195057331   0.387952367063742   0.375000000000000   1.0000000
B2   B   0.277808819626726   0.555601585208382   0.875000000000000   1.0000000
B2   B   0.111075414701206   0.055537030722001   0.875000000000000   1.0000000
B2   B   0.611117999034139   0.555569331401729   0.875000000000000   1.0000000
B2   B   0.444398414791601   0.055540567751601   0.875000000000000   1.0000000
B2   B   0.944459432248378   0.555601585208382   0.875000000000000   1.0000000
B2   B   0.111231138231532   0.555795609796279   0.375000000000000   1.0000000
B2   B   0.777727870851957   0.055530602092695   0.875000000000000   1.0000000
B2   B   0.276765421307781   0.054042231187489   0.375000000000000   1.0000000
B2   B   0.443128360075549   0.556871639924539   0.375000000000000   1.0000000
B2   B   0.780409946515566   0.556871639924539   0.375000000000000   1.0000000
B2   B   0.611523804051576   0.054172240741357   0.375000000000000   1.0000000
B2   B   0.444453236318149   0.555546763681817   0.875000000000000   1.0000000
B2   B   0.944273053665582   0.055726946334505   0.375000000000000   1.0000000
B2   B   0.277802102618250   0.722197897381790   0.875000000000000   1.0000000
B2   B   0.111126363942809   0.222229848638087   0.875000000000000   1.0000000
B2   B   0.444453236318149   0.222239805969590   0.875000000000000   1.0000000
B2   B   0.611122447192633   0.722172421493704   0.875000000000000   1.0000000
B2   B   0.944459432248378   0.722191180373369   0.875000000000000   1.0000000
B2   B   0.777770151361839   0.222229848638087   0.875000000000000   1.0000000
B2   B   0.111504623356702   0.722418978344892   0.375000000000000   1.0000000
B2   B   0.443943476546363   0.723234578692193   0.375000000000000   1.0000000
B2   B   0.271903838673043   0.217284804942617   0.375000000000000   1.0000000
B2   B   0.782715195057331   0.728096161326951   0.375000000000000   1.0000000
B2   B   0.612047632936137   0.217284804942617   0.375000000000000   1.0000000
B2   B   0.944273053665582   0.221879440664283   0.375000000000000   1.0000000
B2   B   0.111075414701206   0.388871717312475   0.875000000000000   1.0000000
B2   B   0.277802102618250   0.888937538569829   0.875000000000000   1.0000000
B2   B   0.611128282687379   0.888924585298749   0.875000000000000   1.0000000
B2   B   0.444430668598338   0.388882000965800   0.875000000000000   1.0000000
B2   B   0.944462969278001   0.888924585298749   0.875000000000000   1.0000000
B2   B   0.111231138231532   0.888768861768491   0.375000000000000   1.0000000
B2   B   0.777716640967784   0.388877552807339   0.875000000000000   1.0000000
B2   B   0.444204390203631   0.888768861768491   0.375000000000000   1.0000000
B2   B   0.271903838673043   0.387952367063742   0.375000000000000   1.0000000
B2   B   0.276765421307781   0.556056523453645   0.375000000000000   1.0000000
B2   B   0.621601516576994   0.378398483423128   0.375000000000000   1.0000000
B2   B   0.778717852975718   0.890769039284943   0.375000000000000   1.0000000
B2   B   0.945827759258623   0.388476195948493   0.375000000000000   1.0000000
B2   B   0.111111937800409   0.555557208934087   0.875000000000000   1.0000000
B2   B   0.277808819626726   0.055540567751601   0.875000000000000   1.0000000
B2   B   0.777760194030366   0.555546763681817   0.875000000000000   1.0000000
B2   B   0.611128282687379   0.055537030722001   0.875000000000000   1.0000000
B2   B   0.944469397907444   0.055530602092695   0.875000000000000   1.0000000
B2   B   0.055521759482325   0.111060381134269   0.125023349555189   1.0000000
B2   B   0.555666262792476   0.611101833845647   0.124567601665831   1.0000000
B2   B   0.388895830203697   0.111124993740768   0.125298217036112   1.0000000
B2   B   0.888875006259263   0.611104169796212   0.125298217036112   1.0000000
B2   B   0.722205288318673   0.111060381134269   0.125023349555189   1.0000000
B2   B   0.055502761592450   0.777712913772069   0.624730460879333   1.0000000
B2   B   0.388876818846328   0.777712913772069   0.624730460879333   1.0000000
B2   B   0.222276620090495   0.277804976711975   0.624980701630933   1.0000000
B2   B   0.722195023288127   0.777723379909386   0.624980701630933   1.0000000
B2   B   0.555666262792476   0.277897762280212   0.625432398334230   1.0000000
B2   B   0.888939618865637   0.277794711681411   0.624976650444824   1.0000000
B2   B   0.222222222222221   0.777777777777779   0.125231451824281   1.0000000
B2   B   0.055521759482325   0.277794711681411   0.125023349555189   1.0000000
B2   B   0.388898166154397   0.277897762280212   0.124567601665835   1.0000000
B2   B   0.555577735445046   0.777769978867675   0.125183084386263   1.0000000
B2   B   0.888858910089293   0.777769978867675   0.125183084386263   1.0000000
B2   B   0.722195023288127   0.277804976711975   0.125019298369002   1.0000000
B2   B   0.055517061216033   0.944482938783994   0.624836633625759   1.0000000
B2   B   0.388876818846328   0.944497238407699   0.624730460879333   1.0000000
B2   B   0.222230021132336   0.444422264554964   0.624816915613823   1.0000000
B2   B   0.555555555555557   0.444444444444443   0.625277479531732   1.0000000
B2   B   0.722205288318673   0.944478240517743   0.624976650444824   1.0000000
B2   B   0.888858910089293   0.444422264554964   0.624816915613823   1.0000000
B2   B   0.055517061216033   0.444367455765442   0.125163366374282   1.0000000
B2   B   0.222287086227933   0.944497238407699   0.125269539120648   1.0000000
B2   B   0.555632544234595   0.944482938783972   0.125163366374282   1.0000000
B2   B   0.388898166154397   0.444333737207631   0.124567601665830   1.0000000
B2   B   0.888939618865637   0.944478240517743   0.125023349555189   1.0000000
B2   B   0.722102237719786   0.444333737207631   0.124567601665835   1.0000000
B2   B   0.222287086227933   0.611123181153697   0.624730460879333   1.0000000
B2   B   0.055521759482320   0.111060381134269   0.624976650444824   1.0000000
B2   B   0.555666262792476   0.611101833845647   0.625432398334230   1.0000000
B2   B   0.388895830203697   0.111124993740768   0.624701782963833   1.0000000
B2   B   0.888875006259263   0.611104169796212   0.624701782963833   1.0000000
B2   B   0.055502761592450   0.611123181153697   0.125269539120648   1.0000000
B2   B   0.722205288318673   0.111060381134269   0.624976650444824   1.0000000
B2   B   0.222230021132336   0.111141089910735   0.125183084386263   1.0000000
B2   B   0.388895830203697   0.611104169796212   0.125298217036112   1.0000000
B2   B   0.722102237719786   0.611101833845647   0.124567601665831   1.0000000
B2   B   0.555577735445046   0.111141089910735   0.125183084386263   1.0000000
B2   B   0.388895830203697   0.611104169796212   0.624701782963833   1.0000000
B2   B   0.888888888888886   0.111111111111114   0.124900158920082   1.0000000
B2   B   0.222222222222221   0.777777777777779   0.624768548175815   1.0000000
B2   B   0.055521759482325   0.277794711681411   0.624976650444824   1.0000000
B2   B   0.388898166154397   0.277897762280212   0.625432398334230   1.0000000
B2   B   0.555577735445046   0.777769978867675   0.624816915613823   1.0000000
B2   B   0.888858910089293   0.777769978867675   0.624816915613823   1.0000000
B2   B   0.722195023288127   0.277804976711975   0.624980701630933   1.0000000
B2   B   0.055502761592450   0.777712913772069   0.125269539120648   1.0000000
B2   B   0.388876818846328   0.777712913772069   0.125269539120648   1.0000000
B2   B   0.222276620090495   0.277804976711975   0.125019298369002   1.0000000
B2   B   0.722195023288127   0.777723379909386   0.125019298369002   1.0000000
B2   B   0.555666262792476   0.277897762280212   0.124567601665835   1.0000000
B2   B   0.888939618865637   0.277794711681411   0.125023349555189   1.0000000
B2   B   0.055517061216033   0.444367455765442   0.624836633625759   1.0000000
B2   B   0.222287086227933   0.944497238407699   0.624730460879333   1.0000000
B2   B   0.555632544234595   0.944482938783972   0.624836633625759   1.0000000
B2   B   0.388898166154397   0.444333737207631   0.625432398334230   1.0000000
B2   B   0.888939618865637   0.944478240517743   0.624976650444824   1.0000000
B2   B   0.055517061216033   0.944482938783972   0.125163366374282   1.0000000
B2   B   0.722102237719786   0.444333737207631   0.625432398334230   1.0000000
B2   B   0.388876818846328   0.944497238407699   0.125269539120648   1.0000000
B2   B   0.222230021132336   0.444422264554964   0.125183084386263   1.0000000
B2   B   0.222287086227933   0.611123181153697   0.125269539120648   1.0000000
B2   B   0.555555555555557   0.444444444444443   0.124722520468241   1.0000000
B2   B   0.722205288318673   0.944478240517743   0.125023349555189   1.0000000
B2   B   0.888858910089293   0.444422264554964   0.125183084386263   1.0000000
B2   B   0.055502761592450   0.611123181153697   0.624730460879333   1.0000000
B2   B   0.222230021132336   0.111141089910735   0.624816915613823   1.0000000
B2   B   0.722102237719786   0.611101833845647   0.625432398334230   1.0000000
B2   B   0.555577735445060   0.111141089910735   0.624816915613823   1.0000000
B2   B   0.888888888888886   0.111111111111114   0.625099841079886   1.0000000


