data_1
_audit_creation_method   'vasp2cif'
_cell_length_a    17.52789999999977
_cell_length_b    17.52789999999977
_cell_length_c    15.0
_cell_angle_alpha    90.0
_cell_angle_beta    90.0
_cell_angle_gamma    119.99999999999916

_symmetry_space_group_name_H-M    'P 1'
loop_
_atom_site_label
_atom_site_type_symbol
_atom_site_fract_x
_atom_site_fract_y
_atom_site_fract_z
_atom_site_occupancy
Al2   Al   0.523729472136393   0.476115645349627   0.972907659433420   1.0000000
B2   B   0.904788562319254   0.952418452506620   0.115866352929081   1.0000000
B2   B   0.904793629561723   0.095264586136605   0.115587345725605   1.0000000
B2   B   0.904783117787948   0.238127013119044   0.115406093171863   1.0000000
B2   B   0.904766293502254   0.380976859748826   0.115518470687657   1.0000000
B2   B   0.904786931443237   0.523815743549665   0.114728914386081   1.0000000
B2   B   0.904796940047450   0.666682294138586   0.113420375801457   1.0000000
B2   B   0.904814948347936   0.809586692960184   0.114976230651789   1.0000000
B2   B   0.047614329549889   0.952387383206091   0.115716738707575   1.0000000
B2   B   0.047638964534164   0.095251257015941   0.115970582704300   1.0000000
B2   B   0.047666032287435   0.238119579892519   0.115511308097408   1.0000000
B2   B   0.047640586870919   0.380969192715388   0.115600158424922   1.0000000
B2   B   0.047612105047546   0.523806261628619   0.115399715747046   1.0000000
B2   B   0.047615473940233   0.666658045901209   0.114559518511816   1.0000000
B2   B   0.047621771448117   0.809531367352752   0.114671153798190   1.0000000
B2   B   0.190429183527212   0.952325762675775   0.114838191251839   1.0000000
B2   B   0.190431968402802   0.095169048350637   0.115165045597228   1.0000000
B2   B   0.190478943917381   0.238075561968461   0.114118294468154   1.0000000
B2   B   0.190495331970678   0.380955763380284   0.113984931507473   1.0000000
B2   B   0.190459635650225   0.523805083743058   0.114912099151622   1.0000000
B2   B   0.190444776403168   0.666654300214183   0.114685217347842   1.0000000
B2   B   0.190435892353195   0.809503491043014   0.114436698387025   1.0000000
B2   B   0.333292077845358   0.952325083960069   0.114953201510260   1.0000000
B2   B   0.333293004275766   0.095144942126066   0.113809747077351   1.0000000
B2   B   0.333147835949698   0.237837910153233   0.110289722840975   1.0000000
B2   B   0.333061550605760   0.380788210446998   0.105466415989934   1.0000000
B2   B   0.333214559781578   0.523828961317396   0.110281572562303   1.0000000
B2   B   0.333326226256758   0.666674331763787   0.113746849734058   1.0000000
B2   B   0.333307509253627   0.809520988108658   0.114903574500693   1.0000000
B2   B   0.476166630629019   0.952369046444140   0.115728082522686   1.0000000
B2   B   0.476154338456861   0.095164041596963   0.115205441141675   1.0000000
B2   B   0.476136184241837   0.237844737326951   0.110222855544550   1.0000000
B2   B   0.473933326769540   0.376433218201782   0.084465536526794   1.0000000
B2   B   0.474050951930740   0.526031612503478   0.084650132730899   1.0000000
B2   B   0.476200382675073   0.666856013693998   0.110282539076482   1.0000000
B2   B   0.476191915052970   0.809567251970919   0.115094813443312   1.0000000
B2   B   0.619039886398467   0.952398356272890   0.115453824834692   1.0000000
B2   B   0.619018433381566   0.095234418746186   0.115513916094745   1.0000000
B2   B   0.619019180506079   0.238064279105562   0.113725531721974   1.0000000
B2   B   0.619183747994733   0.380791194706538   0.105222960115746   1.0000000
B2   B   0.623436129846009   0.526046322965874   0.084527143692256   1.0000000
B2   B   0.619240647900173   0.667028988082110   0.105326890495437   1.0000000
B2   B   0.619073212560362   0.809586257170368   0.113796620200514   1.0000000
B2   B   0.761923781298197   0.952413624433597   0.115208075910341   1.0000000
B2   B   0.761902074162333   0.095261444266280   0.115183537051077   1.0000000
B2   B   0.761892697406466   0.238117651046095   0.115036246754942   1.0000000
B2   B   0.761909062458448   0.380966442835151   0.113606636873968   1.0000000
B2   B   0.762083536191541   0.523851506781681   0.109995877644680   1.0000000
B2   B   0.762131813561952   0.666875978904810   0.110109974728148   1.0000000
B2   B   0.761955264760243   0.809603183513193   0.113844428627367   1.0000000
N2   N   0.952386130984174   0.904793966375958   0.115868829609834   1.0000000
N2   N   0.952405309192877   0.047649309445951   0.116026754837676   1.0000000
N2   N   0.952421306633027   0.190513001867496   0.115513809830334   1.0000000
N2   N   0.952395672419327   0.333359759403550   0.115666825298124   1.0000000
N2   N   0.952372057191152   0.476189908076193   0.115517750952264   1.0000000
N2   N   0.952372019090094   0.619037695737289   0.114327875542475   1.0000000
N2   N   0.952377832519525   0.761918409255016   0.114456770946548   1.0000000
N2   N   0.095212198430582   0.904753901063009   0.115111262220579   1.0000000
N2   N   0.095226456238751   0.047617396990139   0.115943774177800   1.0000000
N2   N   0.095290990920294   0.190511186026021   0.115594120829782   1.0000000
N2   N   0.095298039568999   0.333358683448662   0.115357843042008   1.0000000
N2   N   0.095244545899262   0.476189028287244   0.115557966030340   1.0000000
N2   N   0.095218465080818   0.619030192863731   0.114913778661256   1.0000000
N2   N   0.095211056792910   0.761890191050638   0.114341248890751   1.0000000
N2   N   0.238059515105475   0.904727771021586   0.114548056671040   1.0000000
N2   N   0.238064739679316   0.047574159169467   0.114726644606340   1.0000000
N2   N   0.238064137382172   0.190439389250179   0.114222820311672   1.0000000
N2   N   0.238212013680081   0.333373633478423   0.112225093248808   1.0000000
N2   N   0.238107535761368   0.476173371651053   0.114038341663468   1.0000000
N2   N   0.238089461440280   0.619038503037771   0.114576069943049   1.0000000
N2   N   0.238067634868854   0.761890442527955   0.114480260207997   1.0000000
N2   N   0.380935280813750   0.904743300302313   0.115295938281419   1.0000000
N2   N   0.380930017364248   0.047567510889894   0.114872059079168   1.0000000
N2   N   0.380912367243886   0.190380593180170   0.111208303018340   1.0000000
N2   N   0.380660685599515   0.333105192991493   0.102920776296310   1.0000000
N2   N   0.380739047485333   0.476076572881129   0.103051301109395   1.0000000
N2   N   0.380966041701722   0.619068014519907   0.111216837519079   1.0000000
N2   N   0.380953467995190   0.761909892000764   0.114795496257494   1.0000000
N2   N   0.523812307940875   0.904775494063994   0.115732215857398   1.0000000
N2   N   0.523795593596604   0.047603405430663   0.115863438714567   1.0000000
N2   N   0.523805076861380   0.190433006434595   0.114101752246594   1.0000000
N2   N   0.523898398820102   0.333108751281702   0.102827010546756   1.0000000
N2   N   0.523961016287747   0.619356528070729   0.102966615391981   1.0000000
N2   N   0.523853940252858   0.761958478238399   0.114086662885905   1.0000000
N2   N   0.666679080588011   0.904776624244747   0.115070281907603   1.0000000
N2   N   0.666658585357439   0.047635210163151   0.115372713668420   1.0000000
N2   N   0.666645865142275   0.190496859137184   0.115029016541144   1.0000000
N2   N   0.666612008682416   0.333364247312713   0.111782378785529   1.0000000
N2   N   0.666801693830623   0.476087136521542   0.102849307771732   1.0000000
N2   N   0.666861139801735   0.619365070417750   0.102882827507599   1.0000000
N2   N   0.666661076873726   0.761883032008565   0.111931164573807   1.0000000
N2   N   0.809530248050636   0.904786286340800   0.115348788086111   1.0000000
N2   N   0.809538522524641   0.047648403390710   0.115258577658416   1.0000000
N2   N   0.809525836655789   0.190509122765260   0.115151724716000   1.0000000
N2   N   0.809497370616842   0.333356004417609   0.115046597751936   1.0000000
N2   N   0.809511857354281   0.476179603638677   0.113737400787555   1.0000000
N2   N   0.809561255525336   0.619081043986072   0.110924389301507   1.0000000
N2   N   0.809548111247392   0.761973196594251   0.113987279780888   1.0000000


