data_1
_audit_creation_method   'vasp2cif'
_cell_length_a    17.52789999999977
_cell_length_b    17.52789999999977
_cell_length_c    15.0
_cell_angle_alpha    90.0
_cell_angle_beta    90.0
_cell_angle_gamma    119.99999999999916

_symmetry_space_group_name_H-M    'P 1'
loop_
_atom_site_label
_atom_site_type_symbol
_atom_site_fract_x
_atom_site_fract_y
_atom_site_fract_z
_atom_site_occupancy
B2   B   0.904754226197639   0.952396691309709   0.110977493255244   1.0000000
B2   B   0.904729473600723   0.095272547595273   0.111103285811990   1.0000000
B2   B   0.904729473600723   0.238028232331449   0.111103285811990   1.0000000
B2   B   0.904754226197639   0.380930552769932   0.110977493255244   1.0000000
B2   B   0.904741066870237   0.523822120946519   0.111083411888820   1.0000000
B2   B   0.904895032749889   0.666734025316442   0.111088419485880   1.0000000
B2   B   0.904741066870237   0.809491963806714   0.111083411888820   1.0000000
B2   B   0.047618868954639   0.952383152241363   0.111034356419755   1.0000000
B2   B   0.047605329886294   0.095247794998357   0.110977493255244   1.0000000
B2   B   0.047472495588704   0.238022756735353   0.110946369826305   1.0000000
B2   B   0.047605329886294   0.380930552769932   0.110977493255244   1.0000000
B2   B   0.047618868954639   0.523810446152266   0.111034356419755   1.0000000
B2   B   0.047658377588482   0.666689789402947   0.111057812078586   1.0000000
B2   B   0.047658377588482   0.809543317624534   0.111057812078586   1.0000000
B2   B   0.190458703571469   0.952343643607521   0.111057812078586   1.0000000
B2   B   0.190510057389289   0.095260954325759   0.111083411888820   1.0000000
B2   B   0.190219361922256   0.238082979739646   0.111206301341570   1.0000000
B2   B   0.190219361922256   0.380709400064611   0.111206301341570   1.0000000
B2   B   0.190510057389289   0.523822120946519   0.111083411888820   1.0000000
B2   B   0.190458703571469   0.666689789402947   0.111057812078586   1.0000000
B2   B   0.190476437651000   0.809525583545003   0.111006758762907   1.0000000
B2   B   0.333312231794051   0.952343643607521   0.111057812078586   1.0000000
B2   B   0.333267995880556   0.095106988446108   0.111088419485880   1.0000000
B2   B   0.333144867658996   0.237811397576192   0.110882279819133   1.0000000
B2   B   0.332586517349164   0.380579767615082   0.110996968506607   1.0000000
B2   B   0.333144867658997   0.523906487964805   0.110882279819133   1.0000000
B2   B   0.333267995880556   0.666734025316442   0.111088419485880   1.0000000
B2   B   0.333312231794051   0.809543317624534   0.111057812078586   1.0000000
B2   B   0.476191575044732   0.952383152241363   0.111034356419755   1.0000000
B2   B   0.476179900250479   0.095260954325759   0.111083411888820   1.0000000
B2   B   0.476095533232192   0.237811397576192   0.110882279819133   1.0000000
B2   B   0.474518418916528   0.377607834518052   0.110725993168882   1.0000000
B2   B   0.474518418916528   0.525483602280471   0.110725993168882   1.0000000
B2   B   0.476095533232192   0.666857153538002   0.110882279819133   1.0000000
B2   B   0.476179900250479   0.809491963806714   0.111083411888820   1.0000000
B2   B   0.619071468426072   0.952396691309709   0.110977493255244   1.0000000
B2   B   0.619071468426072   0.095247794998358   0.110977493255244   1.0000000
B2   B   0.619292621131392   0.238082979739646   0.111206301341570   1.0000000
B2   B   0.619422253580922   0.380579767615082   0.110996968506607   1.0000000
B2   B   0.622394186677951   0.525483602280471   0.110725993168882   1.0000000
B2   B   0.619422253580922   0.667415503847835   0.110996968506607   1.0000000
B2   B   0.619292621131392   0.809782659273748   0.111206301341570   1.0000000
B2   B   0.761979264460652   0.952529525607299   0.110946369826305   1.0000000
B2   B   0.761973788864555   0.095272547595273   0.111103285811990   1.0000000
B2   B   0.761979264460652   0.238022756735353   0.110946369826305   1.0000000
B2   B   0.761919041456357   0.380709400064611   0.111206301341570   1.0000000
B2   B   0.762190623619811   0.523906487964805   0.110882279819133   1.0000000
B2   B   0.762190623619811   0.666857153538002   0.110882279819133   1.0000000
B2   B   0.761919041456357   0.809782659273748   0.111206301341570   1.0000000
N2   N   0.952319030573325   0.904658588630345   0.111015133475588   1.0000000
N2   N   0.952395643461423   0.047605758456582   0.111013237068319   1.0000000
N2   N   0.952388576277573   0.190479085515290   0.111076404638086   1.0000000
N2   N   0.952395643461423   0.333359479757835   0.111013237068319   1.0000000
N2   N   0.952319030573325   0.476231748251977   0.111015133475588   1.0000000
N2   N   0.952281319541077   0.619035810129049   0.111080238003477   1.0000000
N2   N   0.952281319541077   0.761816815722026   0.111080238003477   1.0000000
N2   N   0.095244153267698   0.904757248650300   0.111026108776891   1.0000000
N2   N   0.095342813287654   0.047682371344681   0.111015133475588   1.0000000
N2   N   0.095270376753028   0.190543534672060   0.110925812336862   1.0000000
N2   N   0.095270376753028   0.333298148389978   0.110925812336862   1.0000000
N2   N   0.095342813287654   0.476231748251977   0.111015133475588   1.0000000
N2   N   0.095244153267698   0.619059922483392   0.111026108776891   1.0000000
N2   N   0.095220763777436   0.761896890821718   0.111012210559503   1.0000000
N2   N   0.238104511096288   0.904780638140563   0.111012210559503   1.0000000
N2   N   0.238184586195973   0.047720082376929   0.111080238003477   1.0000000
N2   N   0.238361255648496   0.190772315678355   0.111090310321274   1.0000000
N2   N   0.238149779167750   0.333360542738369   0.111460055013698   1.0000000
N2   N   0.238361255648496   0.476160246279137   0.111090310321274   1.0000000
N2   N   0.238184586195973   0.619035810129049   0.111080238003477   1.0000000
N2   N   0.238104511096288   0.761896890821718   0.111012210559503   1.0000000
N2   N   0.380941479434607   0.904757248650300   0.111026108776891   1.0000000
N2   N   0.380965591788949   0.047720082376929   0.111080238003477   1.0000000
N2   N   0.381113486250618   0.190796876893235   0.110952335791783   1.0000000
N2   N   0.381514238484439   0.334145273237071   0.110608205313231   1.0000000
N2   N   0.381514238484439   0.475940271556357   0.110608205313231   1.0000000
N2   N   0.381113486250618   0.618887915667380   0.110952335791783   1.0000000
N2   N   0.380965591788949   0.761816815722026   0.111080238003477   1.0000000
N2   N   0.523769653665020   0.904658588630345   0.111015133475588   1.0000000
N2   N   0.523769653665020   0.047682371344681   0.111015133475588   1.0000000
N2   N   0.523841155637859   0.190772315678355   0.111090310321274   1.0000000
N2   N   0.524061130360640   0.334145273237071   0.110608205313231   1.0000000
N2   N   0.524061130360640   0.618487163433560   0.110608205313231   1.0000000
N2   N   0.523841155637859   0.761640146269509   0.111090310321274   1.0000000
N2   N   0.666703253527019   0.904731025164964   0.110925812336862   1.0000000
N2   N   0.666641922159162   0.047605758456582   0.111013237068319   1.0000000
N2   N   0.666703253527019   0.190543534672060   0.110925812336862   1.0000000
N2   N   0.666640859178628   0.333360542738369   0.111460055013698   1.0000000
N2   N   0.665856128679926   0.475940271556357   0.110608205313231   1.0000000
N2   N   0.665856128679926   0.618487163433560   0.110608205313231   1.0000000
N2   N   0.666640859178628   0.761851622750256   0.111460055013698   1.0000000
N2   N   0.809457867245939   0.904731025164964   0.110925812336862   1.0000000
N2   N   0.809522316402707   0.047612825640432   0.111076404638086   1.0000000
N2   N   0.809522316402707   0.190479085515290   0.111076404638086   1.0000000
N2   N   0.809457867245939   0.333298148389978   0.110925812336862   1.0000000
N2   N   0.809229086239644   0.476160246279137   0.111090310321274   1.0000000
N2   N   0.809204525024763   0.618887915667380   0.110952335791783   1.0000000
N2   N   0.809229086239644   0.761640146269509   0.111090310321274   1.0000000
O2   O   0.523810499174999   0.476190902741997   0.112084019031245   1.0000000


