data_1
_audit_creation_method   'vasp2cif'
_cell_length_a    17.52789999999977
_cell_length_b    17.52789999999977
_cell_length_c    15.0
_cell_angle_alpha    90.0
_cell_angle_beta    90.0
_cell_angle_gamma    119.99999999999916

_symmetry_space_group_name_H-M    'P 1'
loop_
_atom_site_label
_atom_site_type_symbol
_atom_site_fract_x
_atom_site_fract_y
_atom_site_fract_z
_atom_site_occupancy
B2   B   0.904520854103773   0.951533221221833   0.111027154107673   1.0000000
B2   B   0.905444846235721   0.094495280218038   0.111064951122330   1.0000000
B2   B   0.905807255084591   0.237461396431360   0.111064174449573   1.0000000
B2   B   0.905471129245355   0.380616213827705   0.111008188691828   1.0000000
B2   B   0.903578728751401   0.523399269136954   0.110998970807562   1.0000000
B2   B   0.902802628322596   0.665880364328543   0.111079195903534   1.0000000
B2   B   0.902928592319496   0.808206300812472   0.111056926107272   1.0000000
B2   B   0.049323069797627   0.954994346499881   0.111008104620550   1.0000000
B2   B   0.049665888445967   0.096884084059841   0.111009645340254   1.0000000
B2   B   0.049141616885001   0.238565942407514   0.111028594715785   1.0000000
B2   B   0.047882792713946   0.381233332364985   0.111022349306556   1.0000000
B2   B   0.046804666560035   0.524416978001899   0.111010775968438   1.0000000
B2   B   0.046733089337246   0.667577112599774   0.111013444760340   1.0000000
B2   B   0.047433563455821   0.810959023913241   0.110990747971167   1.0000000
B2   B   0.192221987319882   0.956139016284225   0.110972967111290   1.0000000
B2   B   0.196964880204098   0.102922093818896   0.111021917310006   1.0000000
B2   B   0.194737008028183   0.242011481114874   0.110998334463453   1.0000000
B2   B   0.190806532080134   0.382426230201145   0.110987940701941   1.0000000
B2   B   0.189035178406746   0.525028544382837   0.111061285294123   1.0000000
B2   B   0.189614847867913   0.668175183997860   0.111106546094966   1.0000000
B2   B   0.190530896139541   0.811732009304480   0.111015174300272   1.0000000
B2   B   0.334420920575687   0.955251614705512   0.111022400097240   1.0000000
B2   B   0.337109506882675   0.101298224414447   0.111013850142900   1.0000000
B2   B   0.350142622166606   0.255377950463468   0.111019578487789   1.0000000
B2   B   0.335434630686868   0.387075536121941   0.111005880864270   1.0000000
B2   B   0.330552400892361   0.527213807878656   0.111008661508332   1.0000000
B2   B   0.332018967552227   0.668493157824172   0.111123285714280   1.0000000
B2   B   0.333149543430548   0.811227855020988   0.111102857573028   1.0000000
B2   B   0.476615145074041   0.951881749343814   0.111012868243098   1.0000000
B2   B   0.478204927904267   0.095438260748764   0.111024372048706   1.0000000
B2   B   0.483109890556142   0.241638394339756   0.110935434451471   1.0000000
B2   B   0.473613646691573   0.663675261956279   0.111021972378787   1.0000000
B2   B   0.475674354311359   0.808247276373928   0.111064374042413   1.0000000
B2   B   0.619054899628470   0.950331680153912   0.111000772501158   1.0000000
B2   B   0.620095288646990   0.093702135444877   0.111008716228502   1.0000000
B2   B   0.621242450139799   0.236530127367834   0.111017489106064   1.0000000
B2   B   0.617945265828666   0.375346898553892   0.110966654065283   1.0000000
B2   B   0.605903545234374   0.508437161952055   0.111056305923295   1.0000000
B2   B   0.614089545783379   0.659190151401148   0.111036966074528   1.0000000
B2   B   0.617759589166974   0.806134988186463   0.111007006874921   1.0000000
B2   B   0.761495088495709   0.950218833391598   0.111050385702007   1.0000000
B2   B   0.762531305286697   0.093700907882006   0.111063557023868   1.0000000
B2   B   0.763314545359097   0.236881866302200   0.111028385300862   1.0000000
B2   B   0.762940761717884   0.379433310768736   0.111019753378549   1.0000000
B2   B   0.758551984030823   0.520946904110455   0.111072406385382   1.0000000
B2   B   0.755983260810299   0.660640441428973   0.111076090712090   1.0000000
B2   B   0.759245136032524   0.805766971346275   0.111030369523468   1.0000000
C2   C   0.467608742714448   0.517800791766912   0.111037689576718   1.0000000
C2   C   0.496121471567035   0.457217724436672   0.111073399377128   1.0000000
N2   N   0.952574724184390   0.904692663202588   0.111015871778939   1.0000000
N2   N   0.953358354918229   0.047359350137196   0.111011096717563   1.0000000
N2   N   0.953550532620406   0.189972311057372   0.111045671319678   1.0000000
N2   N   0.953121596366131   0.332947473231952   0.111012060744927   1.0000000
N2   N   0.952110164576626   0.476254908029329   0.110957182655100   1.0000000
N2   N   0.951517689236135   0.619243071202089   0.111008619779944   1.0000000
N2   N   0.951541009486317   0.761817997940539   0.111049134577008   1.0000000
N2   N   0.096210616186473   0.906858914401379   0.110948314599493   1.0000000
N2   N   0.099048599509502   0.051442208694251   0.110992140299112   1.0000000
N2   N   0.097948208273933   0.192261003465268   0.110987383866433   1.0000000
N2   N   0.095635760859877   0.333919220766115   0.110986514979997   1.0000000
N2   N   0.094328428825068   0.476773916230675   0.111019863590718   1.0000000
N2   N   0.094484593472140   0.620029240060327   0.111025115960562   1.0000000
N2   N   0.094982307871564   0.763272895756157   0.110975755275681   1.0000000
N2   N   0.238694904355803   0.907140563137206   0.110973055235060   1.0000000
N2   N   0.240995221347471   0.051956134612673   0.110993311065090   1.0000000
N2   N   0.247913991049389   0.200553625545013   0.111005805594086   1.0000000
N2   N   0.239671264933008   0.336753602793435   0.110967908369176   1.0000000
N2   N   0.236217000306571   0.477726915915672   0.111005255153138   1.0000000
N2   N   0.236897438467191   0.620439789314641   0.111122563235849   1.0000000
N2   N   0.237720392996691   0.763523859712878   0.111074630079084   1.0000000
N2   N   0.381161687003110   0.906002491591280   0.111036440281178   1.0000000
N2   N   0.382428362857200   0.050004007711504   0.111009370977952   1.0000000
N2   N   0.385920036191158   0.196369240764149   0.110996722438650   1.0000000
N2   N   0.398027972941826   0.358505877853862   0.111019879779066   1.0000000
N2   N   0.377514624053120   0.481450036236166   0.110969663925580   1.0000000
N2   N   0.379079231733011   0.621132164940216   0.111037299792833   1.0000000
N2   N   0.380394775819760   0.763086675447235   0.111109679490417   1.0000000
N2   N   0.523739207694551   0.903225844624219   0.110999655669040   1.0000000
N2   N   0.524862873101634   0.046235915308687   0.110973525597307   1.0000000
N2   N   0.526785827976237   0.188469317910675   0.111003873217264   1.0000000
N2   N   0.528857327680260   0.330860247475884   0.110782876900594   1.0000000
N2   N   0.517850147510025   0.611717898055072   0.111004043774287   1.0000000
N2   N   0.522518395543674   0.759166433357982   0.111010463830282   1.0000000
N2   N   0.666050535964950   0.901890757480412   0.110996110134576   1.0000000
N2   N   0.667330889759973   0.045445581959892   0.111002840927002   1.0000000
N2   N   0.668750709624104   0.188342534858553   0.110995349112137   1.0000000
N2   N   0.670032406291104   0.330956489442478   0.111013580749242   1.0000000
N2   N   0.664127709907456   0.472436094636344   0.111035183152025   1.0000000
N2   N   0.658267789409597   0.609155198101107   0.111040511526082   1.0000000
N2   N   0.663267310534749   0.756482432319694   0.110991766513591   1.0000000
N2   N   0.808498838657227   0.902147336526669   0.111012301165508   1.0000000
N2   N   0.809910687579696   0.045834882840096   0.111055602348829   1.0000000
N2   N   0.810823565800144   0.189022290071677   0.111054840972720   1.0000000
N2   N   0.811271720608259   0.332231440727696   0.111004994215725   1.0000000
N2   N   0.809076306640939   0.475282438878817   0.111009742628488   1.0000000
N2   N   0.807152721213194   0.616981929814369   0.111087998701794   1.0000000
N2   N   0.806288703502527   0.757997812088413   0.111055401167175   1.0000000


