data_1
_audit_creation_method   'vasp2cif'
_cell_length_a    17.52789999999977
_cell_length_b    17.52789999999977
_cell_length_c    15.0
_cell_angle_alpha    90.0
_cell_angle_beta    90.0
_cell_angle_gamma    119.99999999999916

_symmetry_space_group_name_H-M    'P 1'
loop_
_atom_site_label
_atom_site_type_symbol
_atom_site_fract_x
_atom_site_fract_y
_atom_site_fract_z
_atom_site_occupancy
B2   B   0.905439798831608   0.952701982110513   0.106495021398239   1.0000000
B2   B   0.904630179325429   0.094947396338410   0.108857198493007   1.0000000
B2   B   0.904318892100018   0.237639935586222   0.108919213367927   1.0000000
B2   B   0.904314627237678   0.380594417557945   0.107806932097969   1.0000000
B2   B   0.905066030400742   0.523753779767610   0.105800108797645   1.0000000
B2   B   0.905907859418817   0.667103347931929   0.103339310516943   1.0000000
B2   B   0.906383027222019   0.810463904876671   0.102906692492309   1.0000000
B2   B   0.048302674972484   0.952687796309231   0.105870603113789   1.0000000
B2   B   0.047972634187274   0.095425256151044   0.106733354240274   1.0000000
B2   B   0.047294689574806   0.237747546627112   0.107324787467567   1.0000000
B2   B   0.046985915038506   0.380565769719686   0.107015518572094   1.0000000
B2   B   0.047134917986870   0.523677662833989   0.107167904931782   1.0000000
B2   B   0.047898596874719   0.666780366590578   0.106705543471292   1.0000000
B2   B   0.048357717549667   0.809833112830733   0.105687234453301   1.0000000
B2   B   0.190784224671864   0.952322612507106   0.107714282572967   1.0000000
B2   B   0.190471993228381   0.094955378530844   0.106591112656058   1.0000000
B2   B   0.190790175804246   0.238390960655351   0.106929883674188   1.0000000
B2   B   0.189692563558628   0.380477398869129   0.105914990909582   1.0000000
B2   B   0.189108358480990   0.523683822729763   0.106019528050636   1.0000000
B2   B   0.190135779131951   0.666633851709177   0.108417685235373   1.0000000
B2   B   0.190643515479664   0.809505869132450   0.108763711793519   1.0000000
B2   B   0.333360278387412   0.952015347425345   0.109583297987694   1.0000000
B2   B   0.333266887700976   0.094747978414582   0.109635050226338   1.0000000
B2   B   0.332359719566867   0.236958846137695   0.111696956018514   1.0000000
B2   B   0.334039407264749   0.382072487527345   0.114461919137494   1.0000000
B2   B   0.330047470986636   0.523444902540614   0.106340591157474   1.0000000
B2   B   0.332497453454582   0.666825021588447   0.108066917764744   1.0000000
B2   B   0.333119028668269   0.809320001377603   0.110143199971014   1.0000000
B2   B   0.475968525614907   0.951237941587693   0.110580205678256   1.0000000
B2   B   0.476013222764459   0.094352200255368   0.110619639962108   1.0000000
B2   B   0.475787583274910   0.236924724872044   0.116783614523651   1.0000000
B2   B   0.471018561559686   0.373762262057040   0.141958365041267   1.0000000
B2   B   0.471557681445783   0.539237559900205   0.135250824256418   1.0000000
B2   B   0.473921496708371   0.662940516240173   0.114190470760769   1.0000000
B2   B   0.475454389779653   0.807542399865018   0.112098428293581   1.0000000
B2   B   0.618516849555190   0.951565414020982   0.111414187874458   1.0000000
B2   B   0.618679203481003   0.094533411719312   0.110648701764415   1.0000000
B2   B   0.618708821074964   0.237533454387370   0.113229668491241   1.0000000
B2   B   0.618896600609801   0.380520921691767   0.122794164741031   1.0000000
B2   B   0.628225809457320   0.528577235973341   0.135971587869464   1.0000000
B2   B   0.626772769139134   0.670129443405523   0.112309147270206   1.0000000
B2   B   0.618212677685038   0.809083841773122   0.111874953643765   1.0000000
B2   B   0.761783546093578   0.952019246403484   0.109714560771647   1.0000000
B2   B   0.761501568983316   0.094666449177189   0.110361334002250   1.0000000
B2   B   0.761466766433614   0.237573714376356   0.110052286054767   1.0000000
B2   B   0.761629805273359   0.380591175487425   0.110350136719696   1.0000000
B2   B   0.763270376852963   0.523853923494633   0.108313267115330   1.0000000
B2   B   0.765141101314584   0.668457808501242   0.103257572589131   1.0000000
B2   B   0.763566921326862   0.810279776254544   0.105959044502205   1.0000000
N2   N   0.952893790509402   0.905100666465086   0.104896366910907   1.0000000
N2   N   0.952495479367531   0.047577645070443   0.107555450950482   1.0000000
N2   N   0.952067081451724   0.190058319971542   0.108654014968821   1.0000000
N2   N   0.951893436825437   0.332908810496153   0.107978772978492   1.0000000
N2   N   0.952106129299741   0.475923510838503   0.106842524104668   1.0000000
N2   N   0.952656869173277   0.619073660746718   0.104925047304991   1.0000000
N2   N   0.952964412719200   0.762213546431674   0.103221158900047   1.0000000
N2   N   0.095590075831781   0.904873395417305   0.106477278833496   1.0000000
N2   N   0.095409682801879   0.047697208531127   0.106241928665827   1.0000000
N2   N   0.095572838971303   0.190788517168545   0.106690570519248   1.0000000
N2   N   0.094907582989153   0.333050388783175   0.106514831443828   1.0000000
N2   N   0.094527479619899   0.475912303030919   0.106831153158073   1.0000000
N2   N   0.095136701319313   0.618911962071121   0.107735376176379   1.0000000
N2   N   0.095506515120447   0.761922755250275   0.107306496136308   1.0000000
N2   N   0.238274607413241   0.904573086413696   0.108929817455646   1.0000000
N2   N   0.238189059560634   0.047492993879813   0.107642529290410   1.0000000
N2   N   0.237846066514381   0.190307378728655   0.106720922691239   1.0000000
N2   N   0.239160812628614   0.334537635064653   0.107688319796289   1.0000000
N2   N   0.236637917092852   0.475910474503888   0.104604908963060   1.0000000
N2   N   0.237790623847819   0.618848013192959   0.107332901078854   1.0000000
N2   N   0.238169809577361   0.761681263317732   0.109485880493604   1.0000000
N2   N   0.380972370233163   0.904139672575717   0.110218717834465   1.0000000
N2   N   0.380933177264417   0.047142696008200   0.109743344516649   1.0000000
N2   N   0.380701580585849   0.190119617895359   0.112512972398337   1.0000000
N2   N   0.379531256349956   0.332466310762719   0.120138878254673   1.0000000
N2   N   0.381676796845216   0.480236993183652   0.112922229673681   1.0000000
N2   N   0.380500125835464   0.618600577802300   0.107583432104785   1.0000000
N2   N   0.380867089657624   0.761207984382310   0.110424546014233   1.0000000
N2   N   0.523417658642648   0.902668240452121   0.111518216347228   1.0000000
N2   N   0.523566809589488   0.046466499589176   0.110296292741383   1.0000000
N2   N   0.523548954491717   0.189748517537473   0.112741791381290   1.0000000
N2   N   0.523097722696263   0.332217743626556   0.127864484792246   1.0000000
N2   N   0.523006423191628   0.757457540531082   0.114208579975572   1.0000000
N2   N   0.665916587733307   0.903204878102302   0.111253321414188   1.0000000
N2   N   0.666151071864509   0.046525060132718   0.110788310725463   1.0000000
N2   N   0.666223660017973   0.189860066695904   0.110967468972277   1.0000000
N2   N   0.666184832025546   0.333193659387639   0.115232043513741   1.0000000
N2   N   0.668496106005983   0.476854654731501   0.119893153443157   1.0000000
N2   N   0.668404793656556   0.620393137539753   0.110611425059088   1.0000000
N2   N   0.665729133141285   0.760906805168358   0.109250903184298   1.0000000
N2   N   0.809458708025404   0.904397803303577   0.107418058693756   1.0000000
N2   N   0.809074927988086   0.046804477102072   0.109993263190486   1.0000000
N2   N   0.809023472176009   0.189817915241442   0.109795460959683   1.0000000
N2   N   0.809007091883325   0.332913782133156   0.109039244688205   1.0000000
N2   N   0.809789324423625   0.476026363608450   0.106851422619540   1.0000000
N2   N   0.810281817546793   0.619386174425918   0.103493647438659   1.0000000
N2   N   0.810472518257495   0.762677205083790   0.101907313556227   1.0000000
P2   P   0.524023688819341   0.485577487986851   0.199358666868596   1.0000000


