data_1
_audit_creation_method   'vasp2cif'
_cell_length_a    17.52789999999977
_cell_length_b    17.52789999999977
_cell_length_c    15.0
_cell_angle_alpha    90.0
_cell_angle_beta    90.0
_cell_angle_gamma    119.99999999999916

_symmetry_space_group_name_H-M    'P 1'
loop_
_atom_site_label
_atom_site_type_symbol
_atom_site_fract_x
_atom_site_fract_y
_atom_site_fract_z
_atom_site_occupancy
B2   B   0.902479451712520   0.949880377723120   0.106123060325764   1.0000000
B2   B   0.903739159815912   0.093155311730391   0.108361989926967   1.0000000
B2   B   0.904540710216490   0.236202703094344   0.108399664130229   1.0000000
B2   B   0.904859298706794   0.379220165334322   0.107041382739149   1.0000000
B2   B   0.905767219705766   0.522605948575363   0.104651757838723   1.0000000
B2   B   0.905593147627927   0.665979175928170   0.102727852379372   1.0000000
B2   B   0.903971110492914   0.808638186867935   0.102195521866443   1.0000000
B2   B   0.047213088043401   0.952681314734812   0.104958911465371   1.0000000
B2   B   0.047929660401712   0.095752700295888   0.106326318159140   1.0000000
B2   B   0.048149209639665   0.237861541172658   0.107506216871245   1.0000000
B2   B   0.047831182582897   0.380033743781592   0.107368176564658   1.0000000
B2   B   0.047422409462370   0.523003415897494   0.106491677022687   1.0000000
B2   B   0.047217135099059   0.666519697727179   0.105427355754515   1.0000000
B2   B   0.047274317940639   0.809797412070845   0.104390795918181   1.0000000
B2   B   0.190366893275642   0.953452358650963   0.106520544115370   1.0000000
B2   B   0.191096030588857   0.096880599255499   0.105153850174513   1.0000000
B2   B   0.193950366508337   0.242114287402742   0.105643061362358   1.0000000
B2   B   0.192133341458265   0.382227523898715   0.107190746452529   1.0000000
B2   B   0.189768683626106   0.523834826459422   0.107560124817906   1.0000000
B2   B   0.188447709223943   0.666876954721931   0.107828507311538   1.0000000
B2   B   0.189714192831148   0.810188825128740   0.107546072222568   1.0000000
B2   B   0.332970035232007   0.953124523308047   0.108989822796236   1.0000000
B2   B   0.333878376017500   0.096630140374577   0.108922589614508   1.0000000
B2   B   0.334888027882398   0.240613919396083   0.108014741788772   1.0000000
B2   B   0.342631122827028   0.391263148088879   0.110820374442091   1.0000000
B2   B   0.333360691137837   0.526280676486516   0.108846546243601   1.0000000
B2   B   0.329111810849803   0.667650581475766   0.107804292267291   1.0000000
B2   B   0.331944036375285   0.810155153561045   0.109536211512686   1.0000000
B2   B   0.475431720701632   0.951309868646137   0.110015726714069   1.0000000
B2   B   0.476286430912805   0.094879412653054   0.110434656642502   1.0000000
B2   B   0.477232259983038   0.238395097404509   0.118694428415547   1.0000000
B2   B   0.471442960109625   0.374831432616232   0.149814691889861   1.0000000
B2   B   0.492113196361677   0.581381437727862   0.123801982721648   1.0000000
B2   B   0.467767504127224   0.661885698307711   0.116182120430863   1.0000000
B2   B   0.473928124542107   0.807297645903739   0.111656516657075   1.0000000
B2   B   0.617444911385625   0.948701176246350   0.110608822260045   1.0000000
B2   B   0.618653789792894   0.093086114246339   0.110144287059223   1.0000000
B2   B   0.619403783309464   0.236659067044665   0.113892612090456   1.0000000
B2   B   0.620230928801266   0.379930640093021   0.127453292149074   1.0000000
B2   B   0.634040173353862   0.528649226273450   0.146064052514740   1.0000000
B2   B   0.611485034935417   0.651236906150886   0.112656004541331   1.0000000
B2   B   0.614554681151308   0.802345326776581   0.112411586566060   1.0000000
B2   B   0.759218905146963   0.948112221757542   0.109236587018010   1.0000000
B2   B   0.760940549989601   0.092355666626292   0.109611591259142   1.0000000
B2   B   0.761810079499864   0.235877323327043   0.109600839573781   1.0000000
B2   B   0.762353425678044   0.379062201246911   0.110454261175924   1.0000000
B2   B   0.764682443363608   0.522164189852161   0.109312874101495   1.0000000
B2   B   0.763749200042318   0.665114626649843   0.102390572583343   1.0000000
B2   B   0.756449015609054   0.802972287477274   0.106508336275119   1.0000000
N2   N   0.951760925737353   0.904050478082609   0.104238362740867   1.0000000
N2   N   0.951688509671902   0.046125999023687   0.107123648682166   1.0000000
N2   N   0.952248971506815   0.188850892125468   0.108370308479126   1.0000000
N2   N   0.952336333250869   0.331590336212154   0.107506818631917   1.0000000
N2   N   0.952609797889504   0.474596077535635   0.105725359244230   1.0000000
N2   N   0.952774895817661   0.618129422321872   0.103847331994728   1.0000000
N2   N   0.952366811072482   0.761575281573899   0.102219170560704   1.0000000
N2   N   0.095023609566518   0.905290085387270   0.105189519379727   1.0000000
N2   N   0.095457058376810   0.048205026345931   0.105461482950121   1.0000000
N2   N   0.097019936348537   0.191766190373842   0.106542027004496   1.0000000
N2   N   0.095942333609972   0.333051383077102   0.107385329219995   1.0000000
N2   N   0.094568367300843   0.475270692760847   0.107192287152356   1.0000000
N2   N   0.093833665223333   0.618489189259098   0.106704071750566   1.0000000
N2   N   0.094652829202312   0.762082318510583   0.105870774021383   1.0000000
N2   N   0.237628028738988   0.905572621324029   0.107921191208101   1.0000000
N2   N   0.238349580927221   0.048793148220037   0.106380236421977   1.0000000
N2   N   0.239379092786165   0.192308646609772   0.104097336737718   1.0000000
N2   N   0.243494431259668   0.338539021636323   0.106516992948744   1.0000000
N2   N   0.237654045470758   0.476752086549910   0.107793509028650   1.0000000
N2   N   0.234571927966358   0.619036969063841   0.107779337115919   1.0000000
N2   N   0.236618878826546   0.762380591520310   0.108512390490676   1.0000000
N2   N   0.380116315498870   0.905262673827718   0.109755075099635   1.0000000
N2   N   0.380947828914232   0.048217490431159   0.109357228911260   1.0000000
N2   N   0.381771898023846   0.191586178038929   0.111806136394027   1.0000000
N2   N   0.383079614204666   0.335457799576834   0.113999627289165   1.0000000
N2   N   0.391533103324678   0.489433853758084   0.112229924226459   1.0000000
N2   N   0.374259498907764   0.620433798040245   0.107082706112130   1.0000000
N2   N   0.378588456898112   0.762578174174082   0.109936451668257   1.0000000
N2   N   0.522301308950006   0.902972490113575   0.110705814325944   1.0000000
N2   N   0.523445685573350   0.046583953575583   0.109807728322143   1.0000000
N2   N   0.524240423027979   0.189814189144140   0.113277583335812   1.0000000
N2   N   0.524396254508038   0.332123359473013   0.133820056322588   1.0000000
N2   N   0.519517355725358   0.758007965608904   0.114508977923866   1.0000000
N2   N   0.663891527246726   0.899626304056841   0.110708700055945   1.0000000
N2   N   0.665691579083808   0.044690140785137   0.110008393220507   1.0000000
N2   N   0.666636582069301   0.188450653551085   0.110727270800265   1.0000000
N2   N   0.667230782604355   0.331658848667553   0.116772121073787   1.0000000
N2   N   0.672053122970071   0.474859093266470   0.124794023657451   1.0000000
N2   N   0.670569626908797   0.615909434812689   0.110101538410736   1.0000000
N2   N   0.659726771694434   0.751678909570721   0.110675371523694   1.0000000
N2   N   0.806358855926123   0.900187160767001   0.107359379235958   1.0000000
N2   N   0.808115439220341   0.044387857481076   0.109218903459484   1.0000000
N2   N   0.809132421253837   0.187990573694813   0.109123007645219   1.0000000
N2   N   0.809668680596006   0.331136412335950   0.108503265652058   1.0000000
N2   N   0.811326571843862   0.474160520435810   0.106004820522066   1.0000000
N2   N   0.811625090454814   0.617619979984716   0.103440046741975   1.0000000
N2   N   0.808979748174821   0.760125611810577   0.101156308341534   1.0000000
Al2   Al   0.523621254883578   0.494752911517681   0.218392198918189   1.0000000


