data_1
_audit_creation_method   'vasp2cif'
_cell_length_a    17.52789999999977
_cell_length_b    17.52789999999977
_cell_length_c    15.0
_cell_angle_alpha    90.0
_cell_angle_beta    90.0
_cell_angle_gamma    119.99999999999916

_symmetry_space_group_name_H-M    'P 1'
loop_
_atom_site_label
_atom_site_type_symbol
_atom_site_fract_x
_atom_site_fract_y
_atom_site_fract_z
_atom_site_occupancy
B2   B   0.905028816664895   0.953106582236167   0.110999838207643   1.0000000
B2   B   0.904626655129949   0.095375366066049   0.111054992818090   1.0000000
B2   B   0.904626655129949   0.237822595389897   0.111054992818090   1.0000000
B2   B   0.905028816664895   0.380495252310732   0.110999838207643   1.0000000
B2   B   0.906360578487699   0.523746063015987   0.111124994051676   1.0000000
B2   B   0.906151804432495   0.667362411157750   0.111152332217538   1.0000000
B2   B   0.906360578487699   0.811187533354720   0.111124994051683   1.0000000
B2   B   0.047519896798135   0.952482124397867   0.110925863593744   1.0000000
B2   B   0.046895438959838   0.094973204531100   0.110999838207643   1.0000000
B2   B   0.046719452619484   0.237646235250747   0.111028801822416   1.0000000
B2   B   0.046895438959838   0.380495252310732   0.110999838207643   1.0000000
B2   B   0.047519896798135   0.523612501839265   0.110925863593744   1.0000000
B2   B   0.047999898872861   0.666743769040678   0.111038795783007   1.0000000
B2   B   0.047999898872861   0.809830859271185   0.111038795783007   1.0000000
B2   B   0.190171161924819   0.952002122323135   0.111038795783007   1.0000000
B2   B   0.188814487841284   0.093641442708294   0.111124994051683   1.0000000
B2   B   0.188657211198937   0.236912954857657   0.111105054520191   1.0000000
B2   B   0.188657211198937   0.380317274223282   0.111105054520191   1.0000000
B2   B   0.188814487841284   0.523746063015987   0.111124994051676   1.0000000
B2   B   0.190171161924819   0.666743769040678   0.111038795783007   1.0000000
B2   B   0.190476437651000   0.809525583545003   0.111117662431103   1.0000000
B2   B   0.333258252156322   0.952002122323142   0.111038795783007   1.0000000
B2   B   0.332639610039249   0.093850216763501   0.111152332217538   1.0000000
B2   B   0.329256938118475   0.233723206643601   0.111090809138076   1.0000000
B2   B   0.330285163287589   0.379429090584290   0.110803854919989   1.0000000
B2   B   0.329256938118475   0.524106749356871   0.111090809138076   1.0000000
B2   B   0.332639610039249   0.667362411157750   0.111152332217538   1.0000000
B2   B   0.333258252156322   0.809830859271185   0.111038795783007   1.0000000
B2   B   0.476389519357732   0.952482124397867   0.110925863593744   1.0000000
B2   B   0.476255958181012   0.093641442708294   0.111124994051676   1.0000000
B2   B   0.475895271840126   0.233723206643601   0.111090809138076   1.0000000
B2   B   0.467754146356422   0.364079289397841   0.110713372951222   1.0000000
B2   B   0.467754146356422   0.532247874840577   0.110713372951222   1.0000000
B2   B   0.475895271840126   0.670745083078524   0.111090809138076   1.0000000
B2   B   0.476255958181012   0.811187533354720   0.111124994051676   1.0000000
B2   B   0.619506768885272   0.953106582236167   0.110999838207643   1.0000000
B2   B   0.619506768885272   0.094973204531100   0.110999838207643   1.0000000
B2   B   0.619684746972724   0.236912954857657   0.111105054520191   1.0000000
B2   B   0.620572930611714   0.379429090584290   0.110803854919989   1.0000000
B2   B   0.635922731798162   0.532247874840577   0.110713372951222   1.0000000
B2   B   0.620572930611714   0.669716857909410   0.110803854919989   1.0000000
B2   B   0.619684746972724   0.811344809997075   0.111105054520191   1.0000000
B2   B   0.762355785945255   0.953282568576519   0.111028801822416   1.0000000
B2   B   0.762179425806106   0.095375366066049   0.111054992818090   1.0000000
B2   B   0.762355785945255   0.237646235250747   0.111028801822416   1.0000000
B2   B   0.763089066338345   0.380317274223282   0.111105054520191   1.0000000
B2   B   0.766278814552401   0.524106749356871   0.111090809138076   1.0000000
B2   B   0.766278814552401   0.670745083078524   0.111090809138076   1.0000000
B2   B   0.763089066338345   0.811344809997075   0.111105054520191   1.0000000
N2   N   0.953137896448590   0.905638783054745   0.110948529155606   1.0000000
N2   N   0.952242322799027   0.047759079118978   0.110991406369490   1.0000000
N2   N   0.952020544990904   0.190295069871953   0.111044343036393   1.0000000
N2   N   0.952242322799027   0.333052838433056   0.110991406369490   1.0000000
N2   N   0.953137896448590   0.476070419702844   0.110948529155606   1.0000000
N2   N   0.953540504614782   0.619410609600174   0.111055717504710   1.0000000
N2   N   0.953540504614782   0.762701201324609   0.111055717504710   1.0000000
N2   N   0.095343215019267   0.904658186898731   0.110949406315244   1.0000000
N2   N   0.094362618863256   0.046863505469416   0.110948529155606   1.0000000
N2   N   0.094087237891219   0.189811897637123   0.111024131706587   1.0000000
N2   N   0.094087237891219   0.332846646563091   0.111024131706587   1.0000000
N2   N   0.094362618863256   0.476070419702844   0.110948529155606   1.0000000
N2   N   0.095343215019267   0.619258045986536   0.110949406315244   1.0000000
N2   N   0.095624433869689   0.762098725867847   0.111090688444734   1.0000000
N2   N   0.237902676050158   0.904376968048301   0.111090688444734   1.0000000
N2   N   0.237300200593397   0.046460897303223   0.111055717504710   1.0000000
N2   N   0.235137419520544   0.187805494025972   0.111240096735281   1.0000000
N2   N   0.235847160045451   0.332209233177222   0.110983906502183   1.0000000
N2   N   0.235137419520544   0.475903231803568   0.111240096735281   1.0000000
N2   N   0.237300200593397   0.619410609600174   0.111055717504710   1.0000000
N2   N   0.237902676050158   0.762098725867847   0.111090688444734   1.0000000
N2   N   0.380743355931464   0.904658186898731   0.110949406315244   1.0000000
N2   N   0.380590792317828   0.046460897303223   0.111055717504710   1.0000000
N2   N   0.379760629681595   0.188091163755183   0.111184561922748   1.0000000
N2   N   0.374821550697881   0.327627913825259   0.110743775533458   1.0000000
N2   N   0.374821550697881   0.475764943181616   0.110743775533458   1.0000000
N2   N   0.379760629681595   0.620240772236402   0.111184561922748   1.0000000
N2   N   0.380590792317828   0.762701201324609   0.111055717504710   1.0000000
N2   N   0.523930982214152   0.905638783054745   0.110948529155606   1.0000000
N2   N   0.523930982214152   0.046863505469416   0.110948529155606   1.0000000
N2   N   0.524098170113434   0.187805494025972   0.111240096735281   1.0000000
N2   N   0.524236458735379   0.327627913825259   0.110743775533458   1.0000000
N2   N   0.524236458735379   0.625179851220122   0.110743775533458   1.0000000
N2   N   0.524098170113434   0.764863982397462   0.111240096735281   1.0000000
N2   N   0.667154755353904   0.905914164026789   0.111024131706587   1.0000000
N2   N   0.666948563483940   0.047759079118978   0.110991406369490   1.0000000
N2   N   0.667154755353904   0.189811897637123   0.111024131706587   1.0000000
N2   N   0.667792168739771   0.332209233177222   0.110983906502183   1.0000000
N2   N   0.672373488091738   0.475764943181616   0.110743775533458   1.0000000
N2   N   0.672373488091738   0.625179851220122   0.110743775533458   1.0000000
N2   N   0.667792168739771   0.764154241872558   0.110983906502183   1.0000000
N2   N   0.810189504280876   0.905914164026789   0.111024131706587   1.0000000
N2   N   0.809706332046048   0.047980856927101   0.111044343036393   1.0000000
N2   N   0.809706332046048   0.190295069871953   0.111044343036393   1.0000000
N2   N   0.810189504280876   0.332846646563091   0.111024131706587   1.0000000
N2   N   0.812195907892024   0.475903231803568   0.111240096735281   1.0000000
N2   N   0.811910238162817   0.620240772236402   0.111184561922748   1.0000000
N2   N   0.812195907892024   0.764863982397462   0.111240096735281   1.0000000
S2   S   0.523810499174999   0.476190902741997   0.110841290810087   1.0000000


