data_1
_audit_creation_method   'vasp2cif'
_cell_length_a    14.93631414619966
_cell_length_b    14.936314146199727
_cell_length_c    13.341276283792837
_cell_angle_alpha    90.0
_cell_angle_beta    90.0
_cell_angle_gamma    119.99999999999984

_symmetry_space_group_name_H-M    'P 1'
loop_
_atom_site_label
_atom_site_type_symbol
_atom_site_fract_x
_atom_site_fract_y
_atom_site_fract_z
_atom_site_occupancy
S2   S   0.459217833614818   0.396275583474074   0.375000000000000   1.0000000
N2   N   0.111033364166310   0.055510620389595   0.125250035983335   1.0000000
N2   N   0.611013333743377   0.555464990517685   0.125431347583386   1.0000000
N2   N   0.444386703625338   0.055535159722209   0.125282324219723   1.0000000
N2   N   0.944413880443541   0.555545909609623   0.125179144001071   1.0000000
N2   N   0.777691009029418   0.055512171181377   0.125117494116394   1.0000000
N2   N   0.111083114832851   0.722208224083090   0.624891745447406   1.0000000
N2   N   0.444386703625338   0.722184877236466   0.624717675780276   1.0000000
N2   N   0.277670021081118   0.222176204254807   0.625230535943016   1.0000000
N2   N   0.777710638010827   0.722159033079815   0.624570413402002   1.0000000
N2   N   0.611031485411408   0.222216210864117   0.624542044010701   1.0000000
N2   N   0.944355097327270   0.222186498510207   0.624881178336990   1.0000000
N2   N   0.277739192590589   0.722202068318788   0.125142443232104   1.0000000
N2   N   0.111001653750589   0.222167493541959   0.125155970330406   1.0000000
N2   N   0.444378811622449   0.222205561911457   0.124932492931698   1.0000000
N2   N   0.611031485411408   0.722148607880618   0.125457955989299   1.0000000
N2   N   0.944413880443541   0.722201304167255   0.125179144001071   1.0000000
N2   N   0.777700182016509   0.222205282796389   0.125180811479263   1.0000000
N2   N   0.111071396510924   0.888865871415338   0.624860007150327   1.0000000
N2   N   0.444392141836063   0.888862737584695   0.624859856297710   1.0000000
N2   N   0.277670021081118   0.388827150159640   0.625230535943016   1.0000000
N2   N   0.611013333743377   0.388881676559020   0.624568652416613   1.0000000
N2   N   0.777700182016509   0.888828232553449   0.624819188520737   1.0000000
N2   N   0.944384816961273   0.388875522506365   0.624865615576012   1.0000000
N2   N   0.111033364166310   0.388856077110044   0.125250035983335   1.0000000
N2   N   0.277739192590589   0.888870457605129   0.125142443232104   1.0000000
N2   N   0.611036172179639   0.888841486251916   0.125170424949395   1.0000000
N2   N   0.444236160683433   0.388784747008381   0.121995418692543   1.0000000
N2   N   0.944384816961273   0.888842627788238   0.125134384423988   1.0000000
N2   N   0.777710638010827   0.388884938264340   0.125429586597997   1.0000000
N2   N   0.277720661852714   0.555521179878229   0.624776506030836   1.0000000
N2   N   0.111033364166310   0.055510620389595   0.624749964016665   1.0000000
N2   N   0.611013333743377   0.555464990517685   0.624568652416613   1.0000000
N2   N   0.444386703625338   0.055535159722209   0.624717675780276   1.0000000
N2   N   0.944413880443541   0.555545909609623   0.624820855998930   1.0000000
N2   N   0.111071396510924   0.555538858428914   0.125139992849674   1.0000000
N2   N   0.777691009029418   0.055512171181377   0.624882505883606   1.0000000
N2   N   0.277720661852714   0.055532815307820   0.125223493969164   1.0000000
N2   N   0.444378811622449   0.555506583044328   0.124932492931698   1.0000000
N2   N   0.777735708891241   0.555534521112288   0.125546290765472   1.0000000
N2   N   0.611036172179639   0.055528019261053   0.125170424949395   1.0000000
N2   N   0.444378811622449   0.555506583044328   0.625067507068302   1.0000000
N2   N   0.944355097327270   0.055501932150397   0.125118821663010   1.0000000
N2   N   0.277739192590589   0.722202068318788   0.624857556767895   1.0000000
N2   N   0.111001653750589   0.222167493541959   0.624844029669596   1.0000000
N2   N   0.444378811622449   0.222205561911457   0.625067507068302   1.0000000
N2   N   0.611031485411408   0.722148607880618   0.624542044010701   1.0000000
N2   N   0.944413880443541   0.722201304167255   0.624820855998930   1.0000000
N2   N   0.777700182016509   0.222205282796389   0.624819188520737   1.0000000
N2   N   0.111083114832851   0.722208224083090   0.125108254552595   1.0000000
N2   N   0.444386703625338   0.722184877236466   0.125282324219723   1.0000000
N2   N   0.277670021081118   0.222176204254807   0.124769464056983   1.0000000
N2   N   0.777710638010827   0.722159033079815   0.125429586597997   1.0000000
N2   N   0.611031485411408   0.222216210864117   0.125457955989299   1.0000000
N2   N   0.944355097327270   0.222186498510207   0.125118821663010   1.0000000
N2   N   0.111033364166310   0.388856077110044   0.624749964016665   1.0000000
N2   N   0.277739192590589   0.888870457605129   0.624857556767895   1.0000000
N2   N   0.611036172179639   0.888841486251916   0.624829575050604   1.0000000
N2   N   0.444236160683433   0.388784747008381   0.628004581307457   1.0000000
N2   N   0.944384816961273   0.888842627788238   0.624865615576012   1.0000000
N2   N   0.111071396510924   0.888865871415338   0.125139992849674   1.0000000
N2   N   0.777710638010827   0.388884938264340   0.624570413402002   1.0000000
N2   N   0.444392141836063   0.888862737584695   0.125140143702290   1.0000000
N2   N   0.277670021081118   0.388827150159640   0.124769464056983   1.0000000
N2   N   0.277720661852714   0.555521179878229   0.125223493969164   1.0000000
N2   N   0.611013333743377   0.388881676559020   0.125431347583386   1.0000000
N2   N   0.777700182016509   0.888828232553449   0.125180811479263   1.0000000
N2   N   0.944384816961273   0.388875522506365   0.125134384423988   1.0000000
N2   N   0.111071396510924   0.555538858428914   0.624860007150327   1.0000000
N2   N   0.277720661852714   0.055532815307820   0.624776506030836   1.0000000
N2   N   0.777735708891241   0.555534521112288   0.624453709234527   1.0000000
N2   N   0.611036172179639   0.055528019261053   0.624829575050604   1.0000000
N2   N   0.944355097327270   0.055501932150397   0.624881178336990   1.0000000
N2   N   0.054001215967689   0.110175443895247   0.375000000000000   1.0000000
N2   N   0.554887722240064   0.605985464747573   0.375000000000000   1.0000000
N2   N   0.388392988211348   0.110138359888939   0.375000000000000   1.0000000
N2   N   0.891617400477582   0.612475366905463   0.375000000000000   1.0000000
N2   N   0.721587740767007   0.111125538505751   0.375000000000000   1.0000000
N2   N   0.055555118629287   0.777779415292629   0.875000000000000   1.0000000
N2   N   0.388897671127809   0.777782120237987   0.875000000000000   1.0000000
N2   N   0.222224396629215   0.277778864981275   0.875000000000000   1.0000000
N2   N   0.722227293506047   0.777780266893643   0.875000000000000   1.0000000
N2   N   0.555562948806651   0.277784324557021   0.875000000000000   1.0000000
N2   N   0.888894513601818   0.277779270255081   0.875000000000000   1.0000000
N2   N   0.222843422120910   0.778088377727123   0.375000000000000   1.0000000
N2   N   0.054001215967689   0.277159105405776   0.375000000000000   1.0000000
N2   N   0.383215714973137   0.270288209199684   0.375000000000000   1.0000000
N2   N   0.555513033059864   0.776153899835867   0.375000000000000   1.0000000
N2   N   0.890078612548822   0.778426607700947   0.375000000000000   1.0000000
N2   N   0.721930738291389   0.278579957810148   0.375000000000000   1.0000000
N2   N   0.055556425696599   0.944447075991480   0.875000000000000   1.0000000
N2   N   0.388897671127809   0.944448884223157   0.875000000000000   1.0000000
N2   N   0.222223212683226   0.444445186085292   0.875000000000000   1.0000000
N2   N   0.555571176956673   0.444452255145001   0.875000000000000   1.0000000
N2   N   0.722228274429638   0.944447623001982   0.875000000000000   1.0000000
N2   N   0.888891880751491   0.444443276041995   0.875000000000000   1.0000000
N2   N   0.055177425624618   0.444421533862609   0.375000000000000   1.0000000
N2   N   0.222291487819667   0.944326176382556   0.375000000000000   1.0000000
N2   N   0.555578268166300   0.944455800749814   0.375000000000000   1.0000000
N2   N   0.383215714973137   0.446260839106789   0.375000000000000   1.0000000
N2   N   0.888047071116943   0.943794381572395   0.375000000000000   1.0000000
N2   N   0.726112567689883   0.447052456544240   0.375000000000000   1.0000000
N2   N   0.222224126606025   0.611111178205223   0.875000000000000   1.0000000
N2   N   0.055558593920378   0.111112616125598   0.875000000000000   1.0000000
N2   N   0.555562948806651   0.611111957582966   0.875000000000000   1.0000000
N2   N   0.388894279142711   0.111113974595925   0.875000000000000   1.0000000
N2   N   0.888890731710555   0.611112032521949   0.875000000000000   1.0000000
N2   N   0.056621795401655   0.611587594517355   0.375000000000000   1.0000000
N2   N   0.722228274429638   0.111113984760992   0.875000000000000   1.0000000
N2   N   0.220372994440133   0.109449461045404   0.375000000000000   1.0000000
N2   N   0.388392988211348   0.611587961655752   0.375000000000000   1.0000000
N2   N   0.726112567689883   0.612393444478978   0.375000000000000   1.0000000
N2   N   0.555513033059864   0.112692466557333   0.375000000000000   1.0000000
N2   N   0.388894279142711   0.611113637880129   0.875000000000000   1.0000000
N2   N   0.887705987713973   0.110519660523658   0.375000000000000   1.0000000
N2   N   0.222225570788513   0.777779452060925   0.875000000000000   1.0000000
N2   N   0.055558593920378   0.277779311128116   0.875000000000000   1.0000000
N2   N   0.388890654762511   0.277772103070078   0.875000000000000   1.0000000
N2   N   0.555562763726059   0.777780158882872   0.875000000000000   1.0000000
N2   N   0.888891880751491   0.777781938042832   0.875000000000000   1.0000000
N2   N   0.722227293506047   0.277780359945739   0.875000000000000   1.0000000
N2   N   0.056621795401655   0.778367534217636   0.375000000000000   1.0000000
N2   N   0.389224539442320   0.777977343366250   0.375000000000000   1.0000000
N2   N   0.219644498343083   0.276488915838209   0.375000000000000   1.0000000
N2   N   0.721930738291389   0.776684113814576   0.375000000000000   1.0000000
N2   N   0.554887722240064   0.282235590825828   0.375000000000000   1.0000000
N2   N   0.888047071116943   0.277586022877884   0.375000000000000   1.0000000
N2   N   0.055556425696599   0.444442683038449   0.875000000000000   1.0000000
N2   N   0.222224126606025   0.944446281734138   0.875000000000000   1.0000000
N2   N   0.555563367403886   0.944448350368608   0.875000000000000   1.0000000
N2   N   0.388890654762511   0.444451885025769   0.875000000000000   1.0000000
N2   N   0.888894513601818   0.944448576680073   0.875000000000000   1.0000000
N2   N   0.055177425624618   0.944089225095339   0.375000000000000   1.0000000
N2   N   0.722227231508892   0.444447115064820   0.875000000000000   1.0000000
N2   N   0.389224539442320   0.944580529409405   0.375000000000000   1.0000000
N2   N   0.220372994440133   0.444256866728065   0.375000000000000   1.0000000
N2   N   0.222291487819667   0.611298644770447   0.375000000000000   1.0000000
N2   N   0.721587740767007   0.943795535594591   0.375000000000000   1.0000000
N2   N   0.890078612548822   0.444985338181211   0.375000000000000   1.0000000
N2   N   0.055555118629287   0.611109036669992   0.875000000000000   1.0000000
N2   N   0.222223212683226   0.111111359931269   0.875000000000000   1.0000000
N2   N   0.722227231508892   0.611113449777408   0.875000000000000   1.0000000
N2   N   0.555562763726059   0.111115938176522   0.875000000000000   1.0000000
N2   N   0.888894883895006   0.111114108614175   0.875000000000000   1.0000000
B2   B   0.109401760601402   0.054537266323767   0.375000000000000   1.0000000
B2   B   0.619510842712683   0.561540610224262   0.375000000000000   1.0000000
B2   B   0.444334728932791   0.055168784874673   0.375000000000000   1.0000000
B2   B   0.946439177013118   0.556147248408866   0.375000000000000   1.0000000
B2   B   0.776900963284042   0.055117148308689   0.375000000000000   1.0000000
B2   B   0.111122642559132   0.722227987946231   0.875000000000000   1.0000000
B2   B   0.444443182718516   0.722232660137954   0.875000000000000   1.0000000
B2   B   0.277759934974312   0.222209776847077   0.875000000000000   1.0000000
B2   B   0.777799348477561   0.722250907062687   0.875000000000000   1.0000000
B2   B   0.611118417922597   0.222207929933159   0.875000000000000   1.0000000
B2   B   0.944452708421389   0.222218984062283   0.875000000000000   1.0000000
B2   B   0.278099958502077   0.722430240803783   0.375000000000000   1.0000000
B2   B   0.108538581215632   0.220935957274480   0.375000000000000   1.0000000
B2   B   0.442606315164127   0.219673181152763   0.375000000000000   1.0000000
B2   B   0.611272194951906   0.720961403721963   0.375000000000000   1.0000000
B2   B   0.946439177013118   0.723625261937587   0.375000000000000   1.0000000
B2   B   0.777257445547442   0.221989310543395   0.375000000000000   1.0000000
B2   B   0.111116405198855   0.888896169682082   0.875000000000000   1.0000000
B2   B   0.444450144152396   0.888891738742862   0.875000000000000   1.0000000
B2   B   0.277759934974312   0.388883491460564   0.875000000000000   1.0000000
B2   B   0.611112767577947   0.388887972117711   0.875000000000000   1.0000000
B2   B   0.777795453432248   0.888915912943490   0.875000000000000   1.0000000
B2   B   0.944459844850153   0.388881050804246   0.875000000000000   1.0000000
B2   B   0.109401760601402   0.388197827610963   0.375000000000000   1.0000000
B2   B   0.278099958502077   0.889003051031623   0.375000000000000   1.0000000
B2   B   0.610836091992085   0.888277302295237   0.375000000000000   1.0000000
B2   B   0.944618740316487   0.889379173924602   0.375000000000000   1.0000000
B2   B   0.780320578663720   0.389080744915276   0.375000000000000   1.0000000
B2   B   0.277765852463773   0.555556668293564   0.875000000000000   1.0000000
B2   B   0.111104430706755   0.055555704591843   0.875000000000000   1.0000000
B2   B   0.611112767577947   0.555558128793564   0.875000000000000   1.0000000
B2   B   0.444443182718516   0.055543855913897   0.875000000000000   1.0000000
B2   B   0.944466751249072   0.555558165185044   0.875000000000000   1.0000000
B2   B   0.111422334858109   0.555581948514610   0.375000000000000   1.0000000
B2   B   0.777792240033739   0.055562786683538   0.875000000000000   1.0000000
B2   B   0.276906538835908   0.054747186154831   0.375000000000000   1.0000000
B2   B   0.442606315164127   0.556266467344701   0.375000000000000   1.0000000
B2   B   0.782806126274654   0.558069729803995   0.375000000000000   1.0000000
B2   B   0.610836091992085   0.055892123030176   0.375000000000000   1.0000000
B2   B   0.444429489721227   0.555556244825716   0.875000000000000   1.0000000
B2   B   0.943086121932424   0.054889791986712   0.375000000000000   1.0000000
B2   B   0.277779307284331   0.722225585009382   0.875000000000000   1.0000000
B2   B   0.111100680497619   0.222217006915474   0.875000000000000   1.0000000
B2   B   0.444429489721227   0.222206578228846   0.875000000000000   1.0000000
B2   B   0.611118417922597   0.722243821322766   0.875000000000000   1.0000000
B2   B   0.944466751249072   0.722241919397363   0.875000000000000   1.0000000
B2   B   0.777795453432248   0.222212873822086   0.875000000000000   1.0000000
B2   B   0.112082380742974   0.722707857038152   0.375000000000000   1.0000000
B2   B   0.444334728932791   0.722499277391455   0.375000000000000   1.0000000
B2   B   0.272837826449310   0.219203694859328   0.375000000000000   1.0000000
B2   B   0.780320578663720   0.724573167081772   0.375000000000000   1.0000000
B2   B   0.611272194951906   0.223644124563271   0.375000000000000   1.0000000
B2   B   0.943086121932424   0.221529663279048   0.375000000000000   1.0000000
B2   B   0.111104430706755   0.388882059448240   0.875000000000000   1.0000000
B2   B   0.277779307284331   0.888887055608278   0.875000000000000   1.0000000
B2   B   0.611121012043809   0.888903843236201   0.875000000000000   1.0000000
B2   B   0.444431235182263   0.388882284257796   0.875000000000000   1.0000000
B2   B   0.944459844850153   0.888912127379236   0.875000000000000   1.0000000
B2   B   0.111422334858109   0.889173719676827   0.375000000000000   1.0000000
B2   B   0.777799348477561   0.388881774748203   0.875000000000000   1.0000000
B2   B   0.444612033185415   0.888972683259372   0.375000000000000   1.0000000
B2   B   0.272837826449310   0.386967464923311   0.375000000000000   1.0000000
B2   B   0.276906538835909   0.555492686014413   0.375000000000000   1.0000000
B2   B   0.619510842712683   0.391303565821749   0.375000000000000   1.0000000
B2   B   0.777257445547442   0.888601468337377   0.375000000000000   1.0000000
B2   B   0.944618740316487   0.388572899725215   0.375000000000000   1.0000000
B2   B   0.111116405198855   0.555553568850100   0.875000000000000   1.0000000
B2   B   0.277765852463773   0.055542517503545   0.875000000000000   1.0000000
B2   B   0.777801259937195   0.555567296635266   0.875000000000000   1.0000000
B2   B   0.611121012043809   0.055550502140936   0.875000000000000   1.0000000
B2   B   0.944452708421389   0.055567057692441   0.875000000000000   1.0000000
B2   B   0.055449731456387   0.111051031035042   0.124942739957226   1.0000000
B2   B   0.555429132623138   0.611084824785237   0.124663408935365   1.0000000
B2   B   0.388777943265531   0.111007496161446   0.124857085473416   1.0000000
B2   B   0.888967732938467   0.611150533135905   0.124888539319128   1.0000000
B2   B   0.722152202924659   0.111057177800589   0.124895811982366   1.0000000
B2   B   0.055590400445151   0.777790589309997   0.625127950855474   1.0000000
B2   B   0.388813042831718   0.777768147927768   0.625053815374741   1.0000000
B2   B   0.222058562657781   0.277695947995558   0.625486008576678   1.0000000
B2   B   0.722186021396040   0.777800525409782   0.625043811827134   1.0000000
B2   B   0.555429132623138   0.277677641171238   0.625336591064635   1.0000000
B2   B   0.888847576214520   0.277749268347350   0.625114552115302   1.0000000
B2   B   0.222201060279558   0.777767196806447   0.124903994573453   1.0000000
B2   B   0.055449731456387   0.277732033754682   0.124942739957226   1.0000000
B2   B   0.388738164480222   0.277732878494855   0.123352640373187   1.0000000
B2   B   0.555462140636456   0.777784572698612   0.124961365017660   1.0000000
B2   B   0.888916979746010   0.777801894952815   0.124893785503654   1.0000000
B2   B   0.722186021396040   0.277718829319594   0.124956188172866   1.0000000
B2   B   0.055518948014166   0.944410225272905   0.625064460393447   1.0000000
B2   B   0.388813042831718   0.944378228237285   0.625053815374741   1.0000000
B2   B   0.222098912738699   0.444412777416464   0.625144670678673   1.0000000
B2   B   0.555254058786883   0.444293696060106   0.626026298454617   1.0000000
B2   B   0.722152202924659   0.944428358457406   0.625104188017633   1.0000000
B2   B   0.888916979746010   0.444448418126531   0.625106214496345   1.0000000
B2   B   0.055518948014166   0.444442056074590   0.124935539606554   1.0000000
B2   B   0.222171914854542   0.944389838837213   0.124942208908710   1.0000000
B2   B   0.555471373233678   0.944402353283504   0.124907505285104   1.0000000
B2   B   0.388738164480222   0.444338619318702   0.123352640373187   1.0000000
B2   B   0.888847576214520   0.944431641200506   0.124885447884698   1.0000000
B2   B   0.722191994440938   0.444423740636765   0.124930649314892   1.0000000
B2   B   0.222171914854542   0.611115409350664   0.625057791091289   1.0000000
B2   B   0.055449731456387   0.111051031035042   0.625057260042774   1.0000000
B2   B   0.555429132623138   0.611084824785237   0.625336591064635   1.0000000
B2   B   0.388777943265531   0.111007496161446   0.625142914526584   1.0000000
B2   B   0.888967732938467   0.611150533135905   0.625111460680871   1.0000000
B2   B   0.055590400445151   0.611133144468489   0.124872049144526   1.0000000
B2   B   0.722152202924659   0.111057177800589   0.625104188017633   1.0000000
B2   B   0.222098912738699   0.111019468655571   0.124855329321328   1.0000000
B2   B   0.388777943265531   0.611103780437428   0.124857085473416   1.0000000
B2   B   0.722191994440938   0.611101587137510   0.124930649314892   1.0000000
B2   B   0.555462140636456   0.111010901271180   0.124961365017660   1.0000000
B2   B   0.388777943265531   0.611103780437428   0.625142914526584   1.0000000
B2   B   0.888813805626727   0.111073569480034   0.124894489487985   1.0000000
B2   B   0.222201060279558   0.777767196806447   0.625096005426546   1.0000000
B2   B   0.055449731456387   0.277732033754682   0.625057260042774   1.0000000
B2   B   0.388738164480222   0.277732878494855   0.626647359626813   1.0000000
B2   B   0.555462140636456   0.777784572698612   0.625038634982340   1.0000000
B2   B   0.888916979746010   0.777801894952815   0.625106214496345   1.0000000
B2   B   0.722186021396040   0.277718829319594   0.625043811827134   1.0000000
B2   B   0.055590400445151   0.777790589309997   0.124872049144526   1.0000000
B2   B   0.388813042831718   0.777768147927768   0.124946184625258   1.0000000
B2   B   0.222058562657781   0.277695947995558   0.124513991423322   1.0000000
B2   B   0.722186021396040   0.777800525409782   0.124956188172866   1.0000000
B2   B   0.555429132623138   0.277677641171238   0.124663408935365   1.0000000
B2   B   0.888847576214520   0.277749268347350   0.124885447884698   1.0000000
B2   B   0.055518948014166   0.444442056074590   0.625064460393447   1.0000000
B2   B   0.222171914854542   0.944389838837213   0.625057791091289   1.0000000
B2   B   0.555471373233678   0.944402353283504   0.625092494714897   1.0000000
B2   B   0.388738164480222   0.444338619318702   0.626647359626813   1.0000000
B2   B   0.888847576214520   0.944431641200506   0.625114552115302   1.0000000
B2   B   0.055518948014166   0.944410225272905   0.124935539606554   1.0000000
B2   B   0.722191994440938   0.444423740636765   0.625069350685108   1.0000000
B2   B   0.388813042831718   0.944378228237285   0.124946184625258   1.0000000
B2   B   0.222098912738699   0.444412777416464   0.124855329321328   1.0000000
B2   B   0.222171914854542   0.611115409350664   0.124942208908710   1.0000000
B2   B   0.555254058786883   0.444293696060106   0.123973701545382   1.0000000
B2   B   0.722152202924659   0.944428358457406   0.124895811982366   1.0000000
B2   B   0.888916979746010   0.444448418126531   0.124893785503654   1.0000000
B2   B   0.055590400445151   0.611133144468489   0.625127950855474   1.0000000
B2   B   0.222098912738699   0.111019468655571   0.625144670678673   1.0000000
B2   B   0.722191994440938   0.611101587137510   0.625069350685108   1.0000000
B2   B   0.555462140636456   0.111010901271180   0.625038634982340   1.0000000
B2   B   0.888813805626727   0.111073569480034   0.625105510512014   1.0000000


