data_1
_audit_creation_method   'vasp2cif'
_cell_length_a    17.52789999999977
_cell_length_b    17.52789999999977
_cell_length_c    15.0
_cell_angle_alpha    90.0
_cell_angle_beta    90.0
_cell_angle_gamma    119.99999999999916

_symmetry_space_group_name_H-M    'P 1'
loop_
_atom_site_label
_atom_site_type_symbol
_atom_site_fract_x
_atom_site_fract_y
_atom_site_fract_z
_atom_site_occupancy
B2   B   0.904534408173767   0.951137625604516   0.117124707465730   1.0000000
B2   B   0.904432479173062   0.093873830220627   0.117024779656050   1.0000000
B2   B   0.904509261576264   0.236742116102132   0.117134452443591   1.0000000
B2   B   0.904519189978611   0.379530402573268   0.117628955231378   1.0000000
B2   B   0.904514836379996   0.522315688739641   0.117965180251429   1.0000000
B2   B   0.904518121511766   0.665156007002119   0.118075417009459   1.0000000
B2   B   0.904286498805503   0.807985038119721   0.116591840933855   1.0000000
B2   B   0.047431899843343   0.951118297782486   0.119962807667315   1.0000000
B2   B   0.047373623844003   0.093974861097126   0.120582081611384   1.0000000
B2   B   0.047441503235123   0.236923655555751   0.120117060581398   1.0000000
B2   B   0.047438357623320   0.379627185809761   0.118386047953446   1.0000000
B2   B   0.047495485772804   0.522331215098759   0.118252111774510   1.0000000
B2   B   0.047525191071138   0.665147007843626   0.119193992950756   1.0000000
B2   B   0.047414246258296   0.808086314193303   0.119644630170742   1.0000000
B2   B   0.190374168076235   0.951077599520458   0.120364573399180   1.0000000
B2   B   0.190653627011292   0.094389260006780   0.122307549321895   1.0000000
B2   B   0.190138669034114   0.236900443635270   0.123392419960270   1.0000000
B2   B   0.190596962209070   0.380072275446454   0.118418212084101   1.0000000
B2   B   0.190555032416848   0.522308092682123   0.114023293057050   1.0000000
B2   B   0.190542965076974   0.665068185510162   0.115765313261434   1.0000000
B2   B   0.190404992870893   0.807998857512563   0.118341166285979   1.0000000
B2   B   0.333248264744263   0.950894074411451   0.118720398779431   1.0000000
B2   B   0.333345370845939   0.094074192813931   0.119646963689632   1.0000000
B2   B   0.334042344595247   0.237859596090712   0.119200508257495   1.0000000
B2   B   0.332228908401283   0.380553799299083   0.110553680278235   1.0000000
B2   B   0.333825556111653   0.521493136566689   0.096455356279017   1.0000000
B2   B   0.333325148539622   0.664727525308804   0.103251229020446   1.0000000
B2   B   0.333299252698865   0.807842600447528   0.113437987973935   1.0000000
B2   B   0.476042457116025   0.950936975792259   0.116974510604585   1.0000000
B2   B   0.476056039337209   0.093813758786537   0.118754000261376   1.0000000
B2   B   0.476064439666447   0.236576404393478   0.112168464402169   1.0000000
B2   B   0.475072266635967   0.376911712732294   0.088995966019733   1.0000000
B2   B   0.534316315160197   0.634739352099173   0.014597833153365   1.0000000
B2   B   0.473410139335651   0.668473713044019   0.064187722118821   1.0000000
B2   B   0.476107827846128   0.808449907092874   0.104958473540545   1.0000000
B2   B   0.618702442862362   0.950760823140714   0.113461813229022   1.0000000
B2   B   0.618835066590461   0.093714556827060   0.117948654870441   1.0000000
B2   B   0.618839541125169   0.236525990061886   0.115390771045052   1.0000000
B2   B   0.618568182044577   0.378865413737899   0.106630226828855   1.0000000
B2   B   0.620190672872052   0.522497630183679   0.099407737673519   1.0000000
B2   B   0.624431814002616   0.669146445527628   0.071943671917500   1.0000000
B2   B   0.618333304787039   0.807844522114276   0.098769184852866   1.0000000
B2   B   0.761358218987630   0.950798668722249   0.113455019825075   1.0000000
B2   B   0.761598444958527   0.093790306024661   0.116139567792517   1.0000000
B2   B   0.761667765725493   0.236650181595665   0.116855175510568   1.0000000
B2   B   0.761615251443050   0.379428534545904   0.115221907507885   1.0000000
B2   B   0.761682680969002   0.522326211561739   0.112974213389525   1.0000000
B2   B   0.761534511062446   0.664928835139537   0.109343948197395   1.0000000
B2   B   0.761722511795044   0.808603312592890   0.109679300830720   1.0000000
In2   In   0.485359284587785   0.494405706589398   0.003014579660057   1.0000000
N2   N   0.952272216207650   0.903444503540948   0.118165986548675   1.0000000
N2   N   0.952200566288046   0.046379502292751   0.118078816467898   1.0000000
N2   N   0.951998813340785   0.189111692900943   0.117731950248455   1.0000000
N2   N   0.951933976010363   0.331908239425653   0.117668439646035   1.0000000
N2   N   0.952027486865802   0.474714884289701   0.118419643650262   1.0000000
N2   N   0.952166310614013   0.617531878287728   0.119201250198069   1.0000000
N2   N   0.952202850058667   0.760419168799957   0.118781625000450   1.0000000
N2   N   0.095088730879152   0.903386382662321   0.120174942760622   1.0000000
N2   N   0.095150603816987   0.046360665329968   0.121344103971142   1.0000000
N2   N   0.094621029673809   0.188853763099859   0.122148134339298   1.0000000
N2   N   0.094652288481093   0.331923391864514   0.120021229656872   1.0000000
N2   N   0.094757178770181   0.474733446427059   0.117706933042499   1.0000000
N2   N   0.094971076441858   0.617584167935334   0.118354259157353   1.0000000
N2   N   0.095026983024667   0.760452145317331   0.119499090446522   1.0000000
N2   N   0.237902874477092   0.903360242891034   0.119140012042779   1.0000000
N2   N   0.238017697095457   0.046295982191679   0.121347470023556   1.0000000
N2   N   0.238253337964100   0.189370592298759   0.123481549771778   1.0000000
N2   N   0.236681252625388   0.331058404425042   0.122061587246808   1.0000000
N2   N   0.237574861601431   0.474917807739825   0.111957516010895   1.0000000
N2   N   0.237700530596752   0.617643239655778   0.112253804004155   1.0000000
N2   N   0.237810112077109   0.760500744008421   0.115934137142323   1.0000000
N2   N   0.380732957181630   0.903414440456987   0.116831982498722   1.0000000
N2   N   0.380821187048651   0.046218753186349   0.119472417910711   1.0000000
N2   N   0.381013576701488   0.189111598660418   0.117096602890446   1.0000000
N2   N   0.381719922641287   0.332533807545965   0.112571173895778   1.0000000
N2   N   0.376187904217206   0.470891348489208   0.092835439615331   1.0000000
N2   N   0.379572000802710   0.617901563862386   0.088435781970398   1.0000000
N2   N   0.380485083439478   0.760735371052214   0.106725975741769   1.0000000
N2   N   0.523629670613907   0.903874162698052   0.113738313417951   1.0000000
N2   N   0.523673580415674   0.046347906469369   0.119058984826663   1.0000000
N2   N   0.523748353690726   0.188989726383786   0.116463618240371   1.0000000
N2   N   0.523847837195183   0.331215063933301   0.101405915823692   1.0000000
N2   N   0.523170365077724   0.762383313498813   0.091716052085759   1.0000000
N2   N   0.666363092986924   0.903441623824768   0.109882069545994   1.0000000
N2   N   0.666489770363203   0.046324016484972   0.116687274793320   1.0000000
N2   N   0.666506511068929   0.189061188764361   0.117378934312332   1.0000000
N2   N   0.666477429455142   0.331724128056618   0.112708046059721   1.0000000
N2   N   0.666200903299897   0.474311768030162   0.107548128439888   1.0000000
N2   N   0.666975468278751   0.617068160593960   0.097355147365314   1.0000000
N2   N   0.668443907333972   0.762285783063561   0.098634835768831   1.0000000
N2   N   0.809796980054281   0.903996936234398   0.114678448880559   1.0000000
N2   N   0.809252043871484   0.046345088684085   0.115558812539627   1.0000000
N2   N   0.809246917924207   0.189139511114784   0.116557877809110   1.0000000
N2   N   0.809226263052436   0.331898249006189   0.116885512608026   1.0000000
N2   N   0.809257667853694   0.474631844920734   0.115722567805060   1.0000000
N2   N   0.809360530292416   0.617367405019122   0.115146310707881   1.0000000
N2   N   0.809537120556180   0.760474123467280   0.111939986164633   1.0000000


