data_1
_audit_creation_method   'vasp2cif'
_cell_length_a    17.52789999999977
_cell_length_b    17.52789999999977
_cell_length_c    15.0
_cell_angle_alpha    90.0
_cell_angle_beta    90.0
_cell_angle_gamma    119.99999999999916

_symmetry_space_group_name_H-M    'P 1'
loop_
_atom_site_label
_atom_site_type_symbol
_atom_site_fract_x
_atom_site_fract_y
_atom_site_fract_z
_atom_site_occupancy
Al2   Al   0.453428587563305   0.478285559177615   0.111042186689621   1.0000000
B2   B   0.907092408082653   0.954081289694544   0.111022587547101   1.0000000
B2   B   0.904181086203153   0.094714980132320   0.111043358075145   1.0000000
B2   B   0.903549949431185   0.237132386487653   0.111068195567352   1.0000000
B2   B   0.904535501279115   0.380497675053216   0.111029003837266   1.0000000
B2   B   0.907311114267958   0.524548268860393   0.111063532188764   1.0000000
B2   B   0.909468659882715   0.668744691458852   0.111080892588872   1.0000000
B2   B   0.908828388471585   0.812082562049060   0.111058562267733   1.0000000
B2   B   0.049647322794470   0.954367812638856   0.111044473240811   1.0000000
B2   B   0.046824575962237   0.094604565454335   0.111039339205727   1.0000000
B2   B   0.044842367400323   0.236636718074998   0.111003740275203   1.0000000
B2   B   0.044314314700565   0.380267596593516   0.111006314922489   1.0000000
B2   B   0.045808770540447   0.524548268860393   0.111063532188764   1.0000000
B2   B   0.048551213748941   0.668532523105858   0.111084805911772   1.0000000
B2   B   0.049786716890854   0.811854873003350   0.111062586268179   1.0000000
B2   B   0.191559730024697   0.954549555657399   0.111016303158451   1.0000000
B2   B   0.191574965400359   0.096925912747402   0.111056616500507   1.0000000
B2   B   0.185649823558042   0.234449873589498   0.110965212388252   1.0000000
B2   B   0.183615513957642   0.379302998551201   0.110971089866881   1.0000000
B2   B   0.183718377005276   0.524475753962397   0.111017987455217   1.0000000
B2   B   0.187847647524139   0.668744691458852   0.111080892588872   1.0000000
B2   B   0.190638060504499   0.811854873003350   0.111062586268179   1.0000000
B2   B   0.333290394237385   0.954367812638856   0.111044473240811   1.0000000
B2   B   0.333922563296049   0.096925912747402   0.111056616500507   1.0000000
B2   B   0.334520583433680   0.240469550917357   0.111025749741640   1.0000000
B2   B   0.319259324907709   0.375090809966032   0.111081887095221   1.0000000
B2   B   0.320234223749658   0.523297490738556   0.110965517971348   1.0000000
B2   B   0.326499719266648   0.669182638193471   0.111010722072180   1.0000000
B2   B   0.331825789526479   0.812082562049060   0.111058562267733   1.0000000
B2   B   0.475560497560883   0.954081289694544   0.111022587547101   1.0000000
B2   B   0.476351605441105   0.094604565454335   0.111039339205727   1.0000000
B2   B   0.477371665980452   0.234449873589499   0.110965212388252   1.0000000
B2   B   0.484403101008318   0.375090809966032   0.111081887095221   1.0000000
B2   B   0.463500473040779   0.676660379096851   0.111200982406812   1.0000000
B2   B   0.474245966418550   0.814288814757988   0.110972103378154   1.0000000
B2   B   0.618829050331459   0.952954861968068   0.111002411847875   1.0000000
B2   B   0.619107221434171   0.094714980132320   0.111043358075145   1.0000000
B2   B   0.620365966623681   0.236636718074998   0.111003740275203   1.0000000
B2   B   0.624259100542566   0.379302998551201   0.110971089866881   1.0000000
B2   B   0.631634882937890   0.523297490738556   0.110965517971348   1.0000000
B2   B   0.641731522005083   0.676660379096851   0.111200982406812   1.0000000
B2   B   0.619900276275551   0.811228936602091   0.110913533298085   1.0000000
B2   B   0.762697427585601   0.952954861968068   0.111002411847875   1.0000000
B2   B   0.761638500422195   0.094703673339412   0.111075499992619   1.0000000
B2   B   0.762155764561473   0.237132386487653   0.111068195567352   1.0000000
B2   B   0.764524897841955   0.380267596593516   0.111006314922489   1.0000000
B2   B   0.769328992905123   0.524475753962390   0.111017987455217   1.0000000
B2   B   0.771254534875830   0.669182638193471   0.111010722072180   1.0000000
B2   B   0.768614464288432   0.814288814757989   0.110972103378154   1.0000000
N2   N   0.954880287541343   0.906842692483350   0.111038203937857   1.0000000
N2   N   0.952527670031802   0.048015549855469   0.111027990347221   1.0000000
N2   N   0.950531951505224   0.189315489698611   0.111031079465426   1.0000000
N2   N   0.950374097621885   0.332069224347695   0.111014679704427   1.0000000
N2   N   0.952158789969968   0.475743160139939   0.111030265439889   1.0000000
N2   N   0.954667873862458   0.619949489900733   0.111077536707159   1.0000000
N2   N   0.955428504915977   0.763910616204484   0.111067527615980   1.0000000
N2   N   0.096872244598415   0.906826635861292   0.111010605271145   1.0000000
N2   N   0.096391908199564   0.049136024300576   0.111023598624766   1.0000000
N2   N   0.091950982846273   0.188469461904599   0.110981715430363   1.0000000
N2   N   0.090190274311725   0.331516547765865   0.110974979652188   1.0000000
N2   N   0.090483590328391   0.475563857442631   0.111010910525290   1.0000000
N2   N   0.093854324281286   0.619949489900733   0.111077536707159   1.0000000
N2   N   0.096152557982885   0.763734119278779   0.111043796960585   1.0000000
N2   N   0.238525387949875   0.906826635861292   0.111010605271145   1.0000000
N2   N   0.239057883064746   0.049543057886486   0.111033576046947   1.0000000
N2   N   0.238739481587453   0.192170686202333   0.111017449881230   1.0000000
N2   N   0.227690473754257   0.327480201111557   0.110925183915937   1.0000000
N2   N   0.227507006721870   0.475064199040676   0.110947636200125   1.0000000
N2   N   0.232800859559321   0.620096347761399   0.111017146460733   1.0000000
N2   N   0.237054819531508   0.763910616204484   0.111067527615980   1.0000000
N2   N   0.380535113184992   0.906842692483350   0.111038203937857   1.0000000
N2   N   0.381316824344005   0.049136024300576   0.111023598624766   1.0000000
N2   N   0.382003912857882   0.192170686202333   0.111017449881230   1.0000000
N2   N   0.383299978660409   0.338027249077816   0.110982040065946   1.0000000
N2   N   0.354257025854657   0.466632246541295   0.111033279157833   1.0000000
N2   N   0.371253894425050   0.620345486795033   0.111004389143851   1.0000000
N2   N   0.378665731567227   0.764503498470318   0.110977525950204   1.0000000
N2   N   0.523542616745270   0.907655848974730   0.110947822784131   1.0000000
N2   N   0.524062299622669   0.048015549855469   0.111027990347221   1.0000000
N2   N   0.525091187301327   0.188469461904600   0.110981715430363   1.0000000
N2   N   0.528362435600301   0.327480201111557   0.110925183915937   1.0000000
N2   N   0.540947928929652   0.466632246541295   0.111033279157833   1.0000000
N2   N   0.522533064805649   0.768105870374789   0.110975427615045   1.0000000
N2   N   0.666983569994415   0.905394431746859   0.110934066251524   1.0000000
N2   N   0.666678080458541   0.047366579992350   0.111027145534478   1.0000000
N2   N   0.667357957992388   0.189315489698611   0.111031079465426   1.0000000
N2   N   0.669898981697128   0.331516547765865   0.110974979652188   1.0000000
N2   N   0.676129900561805   0.475064199040676   0.110947636200125   1.0000000
N2   N   0.677664300611986   0.620345486795033   0.111004389143851   1.0000000
N2   N   0.674145513811144   0.768105870374789   0.110975427615045   1.0000000
N2   N   0.812685940472472   0.907655848974730   0.110947822784131   1.0000000
N2   N   0.809262919332793   0.047366579992350   0.111027145534478   1.0000000
N2   N   0.808980515262411   0.189386610724827   0.111086191179567   1.0000000
N2   N   0.810269546525812   0.332069224347695   0.111014679704427   1.0000000
N2   N   0.813652975358240   0.475563857442631   0.111010910525290   1.0000000
N2   N   0.815868196445082   0.620096347761399   0.111017146460733   1.0000000
N2   N   0.814410475146092   0.764503498470318   0.110977525950204   1.0000000
Se2   Se   0.522578402864546   0.616584097487087   0.110923087315663   1.0000000


