data_1
_audit_creation_method   'vasp2cif'
_cell_length_a    17.52789999999977
_cell_length_b    17.52789999999977
_cell_length_c    15.0
_cell_angle_alpha    90.0
_cell_angle_beta    90.0
_cell_angle_gamma    119.99999999999916

_symmetry_space_group_name_H-M    'P 1'
loop_
_atom_site_label
_atom_site_type_symbol
_atom_site_fract_x
_atom_site_fract_y
_atom_site_fract_z
_atom_site_occupancy
B2   B   0.904573549714550   0.952210950872509   0.110806710642428   1.0000000
B2   B   0.904805821295110   0.095196199900895   0.111028221015681   1.0000000
B2   B   0.904886511508722   0.238093806854569   0.111530093892349   1.0000000
B2   B   0.904866605014505   0.380960218943421   0.111457814435678   1.0000000
B2   B   0.904729102655806   0.523811551811042   0.111053005092462   1.0000000
B2   B   0.904795973173345   0.666701073034288   0.111033018507320   1.0000000
B2   B   0.904611956241323   0.809444409129253   0.111179482847670   1.0000000
B2   B   0.047569409009133   0.952432612186864   0.110906081131976   1.0000000
B2   B   0.047791070323495   0.095428471481445   0.110806710642428   1.0000000
B2   B   0.047891335255781   0.238260036598722   0.110782170235298   1.0000000
B2   B   0.047866724759656   0.381055910092141   0.110996587269012   1.0000000
B2   B   0.047743394285362   0.523850369364164   0.111199332997769   1.0000000
B2   B   0.047577662601801   0.666709224536981   0.111136680519260   1.0000000
B2   B   0.047576379976495   0.809581691305095   0.111149657658756   1.0000000
B2   B   0.190420329890914   0.952425641219502   0.111149657658756   1.0000000
B2   B   0.190557612066754   0.095390064954679   0.111179482847670   1.0000000
B2   B   0.191042868594182   0.238699156858896   0.110631924064985   1.0000000
B2   B   0.190862819083814   0.381246421516884   0.110292467562112   1.0000000
B2   B   0.190886817317356   0.523968056270904   0.110651226513945   1.0000000
B2   B   0.190359170818457   0.666760755930876   0.111324653627324   1.0000000
B2   B   0.190398406739310   0.809603614456698   0.111267231282260   1.0000000
B2   B   0.333292796660018   0.952424358594207   0.111136680519260   1.0000000
B2   B   0.333300948162704   0.095206048022650   0.111033018507320   1.0000000
B2   B   0.333387384921528   0.238024245299613   0.110848304830467   1.0000000
B2   B   0.334220007277042   0.381820501598799   0.112199590648894   1.0000000
B2   B   0.334115749964276   0.524679463919805   0.111607180250312   1.0000000
B2   B   0.333067837928453   0.666934183268552   0.111582107517185   1.0000000
B2   B   0.333241265266135   0.809642850377541   0.111324653627324   1.0000000
B2   B   0.476151651832842   0.952258626910647   0.111199332997769   1.0000000
B2   B   0.476190469385952   0.095272918540193   0.111053005092463   1.0000000
B2   B   0.476057994407776   0.238011326997861   0.109795086767425   1.0000000
B2   B   0.474884432993457   0.378683064656705   0.107829177193035   1.0000000
B2   B   0.475322557277183   0.665886271232717   0.111607180250312   1.0000000
B2   B   0.476033964926092   0.809115203878646   0.110651226513945   1.0000000
B2   B   0.618946111103870   0.952135296436355   0.110996587269012   1.0000000
B2   B   0.619041802252594   0.095135416181493   0.111457814435678   1.0000000
B2   B   0.619119034498140   0.238023032427781   0.110902344104154   1.0000000
B2   B   0.619334885130831   0.380667136065167   0.107913177682113   1.0000000
B2   B   0.621318956539303   0.525117588203534   0.107829177193035   1.0000000
B2   B   0.618181519597202   0.665782013919963   0.112199590648894   1.0000000
B2   B   0.618755599679108   0.809139202112187   0.110292467562112   1.0000000
B2   B   0.761741984597282   0.952110685940228   0.110782170235298   1.0000000
B2   B   0.761908214341433   0.095115509687275   0.111530093892349   1.0000000
B2   B   0.761958826821227   0.238043194374767   0.111723305979421   1.0000000
B2   B   0.761978988768217   0.380882986697867   0.110902344104155   1.0000000
B2   B   0.761990694198151   0.523944026789226   0.109795086767425   1.0000000
B2   B   0.761977775896398   0.666614636275470   0.110848304830467   1.0000000
B2   B   0.761302864337113   0.808959152601823   0.110631924064984   1.0000000
N2   N   0.952206515206526   0.904614250816879   0.110899667003567   1.0000000
N2   N   0.952443496054458   0.047557905863549   0.110849044507599   1.0000000
N2   N   0.952624277214761   0.190529105018066   0.111121475957877   1.0000000
N2   N   0.952631841927064   0.333440483124953   0.111408977927980   1.0000000
N2   N   0.952426581088685   0.476259670585731   0.111343569385306   1.0000000
N2   N   0.952221095513349   0.619031046301995   0.111048785752692   1.0000000
N2   N   0.952169516306469   0.761820085602862   0.111080505889642   1.0000000
N2   N   0.095179105237318   0.904822296680688   0.111122824368458   1.0000000
N2   N   0.095387151101120   0.047794886711477   0.110899667003567   1.0000000
N2   N   0.095842694489483   0.190923860974854   0.110571574516173   1.0000000
N2   N   0.095796894597092   0.333647943443909   0.110607499417544   1.0000000
N2   N   0.095693445036133   0.476334081019299   0.110851675718220   1.0000000
N2   N   0.095205323612177   0.619078593660775   0.111171491373433   1.0000000
N2   N   0.095139111785583   0.761935230879112   0.111192684032553   1.0000000
N2   N   0.238066171038886   0.904862290132415   0.111192684032553   1.0000000
N2   N   0.238181316315139   0.047831885611536   0.111080505889643   1.0000000
N2   N   0.238598708254739   0.191009079015369   0.111190838074096   1.0000000
N2   N   0.239433622585396   0.334537570533993   0.110486133499296   1.0000000
N2   N   0.239269316904129   0.476493740890304   0.110137260945086   1.0000000
N2   N   0.238134154359079   0.619105812958796   0.111269397690528   1.0000000
N2   N   0.238042795686988   0.761958606231025   0.111336466030746   1.0000000
N2   N   0.380922808257236   0.904796078305816   0.111171491373433   1.0000000
N2   N   0.380970355615992   0.047780306404658   0.111048785752692   1.0000000
N2   N   0.381114435345847   0.190876922349907   0.110622966107860   1.0000000
N2   N   0.381768159830604   0.334352507494775   0.110972210249638   1.0000000
N2   N   0.384237535453648   0.478082840375409   0.113536158174617   1.0000000
N2   N   0.380858131887635   0.619143270030352   0.112325573125576   1.0000000
N2   N   0.380895588959202   0.761867247558935   0.111269397690528   1.0000000
N2   N   0.523667320897706   0.904307956881864   0.110851675718220   1.0000000
N2   N   0.523741731331271   0.047574820829313   0.111343569385306   1.0000000
N2   N   0.523739354771012   0.190798448050019   0.110550486799320   1.0000000
N2   N   0.523898885721920   0.334375155312086   0.107886319109873   1.0000000
N2   N   0.521918561541590   0.615763866464349   0.113536158174617   1.0000000
N2   N   0.523507661026692   0.760732085013871   0.110137260945086   1.0000000
N2   N   0.666353458473093   0.904204507320913   0.110607499417544   1.0000000
N2   N   0.666560918792037   0.047369559990935   0.111408977927980   1.0000000
N2   N   0.666611348546286   0.190410380201731   0.111583886922448   1.0000000
N2   N   0.666610503201903   0.333390898715089   0.110026872825738   1.0000000
N2   N   0.665626246604917   0.476102516195073   0.107886319109874   1.0000000
N2   N   0.665648894422218   0.618233242087394   0.110972210249638   1.0000000
N2   N   0.665463831383008   0.760567779332612   0.110486133499296   1.0000000
N2   N   0.809077540943147   0.904158707428517   0.110571574516173   1.0000000
N2   N   0.809472296899929   0.047377124703248   0.111121475957877   1.0000000
N2   N   0.809592149064883   0.190409252853110   0.111828376963762   1.0000000
N2   N   0.809591021716272   0.333390053370705   0.111583886922448   1.0000000
N2   N   0.809202953867975   0.476262047145983   0.110550486799319   1.0000000
N2   N   0.809124479568092   0.618886966572152   0.110622966107860   1.0000000
N2   N   0.808992322902632   0.761402693663265   0.111190838074096   1.0000000
C2   C   0.474519573070293   0.525482448126700   0.129549322775303   1.0000000
O2   O   0.523064822791246   0.476936579125745   0.102621246377352   1.0000000


