data_1
_audit_creation_method   'vasp2cif'
_cell_length_a    14.93631414619966
_cell_length_b    14.936314146199727
_cell_length_c    13.341276283792837
_cell_angle_alpha    90.0
_cell_angle_beta    90.0
_cell_angle_gamma    119.99999999999984

_symmetry_space_group_name_H-M    'P 1'
loop_
_atom_site_label
_atom_site_type_symbol
_atom_site_fract_x
_atom_site_fract_y
_atom_site_fract_z
_atom_site_occupancy
Si2   Si   0.555555555555557   0.444444444444443   0.375000000000000   1.0000000
N2   N   0.111115964500149   0.055538371069978   0.123098299603516   1.0000000
N2   N   0.611122648375946   0.555578630085061   0.123858657340889   1.0000000
N2   N   0.444426668819828   0.055536414720816   0.123022893494930   1.0000000
N2   N   0.944463585279139   0.555573331180075   0.123022893494930   1.0000000
N2   N   0.777763380650853   0.055548356992074   0.123542467766049   1.0000000
N2   N   0.111122289114092   0.722227811223493   0.626060303560946   1.0000000
N2   N   0.444426668819828   0.722223587432176   0.626977106505105   1.0000000
N2   N   0.277776306121184   0.222201097802190   0.627595140400245   1.0000000
N2   N   0.777798902197598   0.722223693878532   0.627595140400245   1.0000000
N2   N   0.611091458347769   0.222201097802190   0.627595140400245   1.0000000
N2   N   0.944451643008064   0.222236619349160   0.626457532234340   1.0000000
N2   N   0.277772188776333   0.722227811223493   0.123939696439122   1.0000000
N2   N   0.111132605590577   0.222232969461876   0.123023157373608   1.0000000
N2   N   0.444441184464701   0.222215702262389   0.122532682629870   1.0000000
N2   N   0.611091458347769   0.722223693878532   0.122404859599324   1.0000000
N2   N   0.944463585279139   0.722223587432176   0.123022893494930   1.0000000
N2   N   0.777767030538270   0.222232969461876   0.123023157373608   1.0000000
N2   N   0.111121823414109   0.888878176586038   0.626356669307954   1.0000000
N2   N   0.444423019838629   0.888878176586038   0.626356669307956   1.0000000
N2   N   0.277776306121195   0.388908541652317   0.627595140400245   1.0000000
N2   N   0.611122648375946   0.388877351624134   0.626141342659368   1.0000000
N2   N   0.777767030538270   0.888867394409497   0.626976842626510   1.0000000
N2   N   0.944461628929804   0.388910926763651   0.626901700396745   1.0000000
N2   N   0.111115964500149   0.388910926763651   0.123098299603517   1.0000000
N2   N   0.277772188776333   0.888877710885995   0.123939696439122   1.0000000
N2   N   0.611089073237033   0.888884035499397   0.123098299603516   1.0000000
N2   N   0.444421369914858   0.388877351624134   0.123858657340847   1.0000000
N2   N   0.944461628929804   0.888884035499397   0.123098299603516   1.0000000
N2   N   0.777798902197598   0.388908541652317   0.122404859599309   1.0000000
N2   N   0.277776412567755   0.555573331180075   0.626977106505105   1.0000000
N2   N   0.111115964500149   0.055538371069977   0.626901700396745   1.0000000
N2   N   0.611122648375946   0.555578630085061   0.626141342659305   1.0000000
N2   N   0.444426668819828   0.055536414720810   0.626977106505105   1.0000000
N2   N   0.944463585279139   0.555573331180075   0.626977106505105   1.0000000
N2   N   0.111121823414114   0.555576980161511   0.123643330691623   1.0000000
N2   N   0.777763380650853   0.055548356992074   0.626457532234392   1.0000000
N2   N   0.277776412567754   0.055536414720816   0.123022893494930   1.0000000
N2   N   0.444441184464648   0.555558815535399   0.122532682629840   1.0000000
N2   N   0.777784297737261   0.555558815535399   0.122532682629819   1.0000000
N2   N   0.611089073237033   0.055538371069971   0.123098299603514   1.0000000
N2   N   0.444441184464701   0.555558815535399   0.627467317369940   1.0000000
N2   N   0.944451643008064   0.055548356992072   0.123542467766067   1.0000000
N2   N   0.277772188776333   0.722227811223493   0.626060303560946   1.0000000
N2   N   0.111132605590577   0.222232969461876   0.626976842626510   1.0000000
N2   N   0.444441184464664   0.222215702262388   0.627467317369940   1.0000000
N2   N   0.611091458347769   0.722223693878532   0.627595140400245   1.0000000
N2   N   0.944463585279139   0.722223587432163   0.626977106505105   1.0000000
N2   N   0.777767030538270   0.222232969461876   0.626976842626510   1.0000000
N2   N   0.111122289114094   0.722227811223493   0.123939696439122   1.0000000
N2   N   0.444426668819828   0.722223587432176   0.123022893494933   1.0000000
N2   N   0.277776306121184   0.222201097802190   0.122404859599321   1.0000000
N2   N   0.777798902197598   0.722223693878532   0.122404859599330   1.0000000
N2   N   0.611091458347769   0.222201097802189   0.122404859599375   1.0000000
N2   N   0.944451643008064   0.222236619349184   0.123542467766081   1.0000000
N2   N   0.111115964500149   0.388910926763651   0.626901700396745   1.0000000
N2   N   0.277772188776333   0.888877710885995   0.626060303560946   1.0000000
N2   N   0.611089073237033   0.888884035499397   0.626901700396745   1.0000000
N2   N   0.444421369914858   0.388877351624134   0.626141342659368   1.0000000
N2   N   0.944461628929804   0.888884035499397   0.626901700396745   1.0000000
N2   N   0.111121823414115   0.888878176586038   0.123643330691623   1.0000000
N2   N   0.777798902197598   0.388908541652317   0.627595140400245   1.0000000
N2   N   0.444423019838630   0.888878176586038   0.123643330691623   1.0000000
N2   N   0.277776306121184   0.388908541652397   0.122404859599361   1.0000000
N2   N   0.277776412567755   0.555573331180075   0.123022893494933   1.0000000
N2   N   0.611122648375946   0.388877351624134   0.123858657340853   1.0000000
N2   N   0.777767030538270   0.888867394409497   0.123023157373608   1.0000000
N2   N   0.944461628929804   0.388910926763651   0.123098299603517   1.0000000
N2   N   0.111121823414108   0.555576980161485   0.626356669307954   1.0000000
N2   N   0.277776412567758   0.055536414720810   0.626977106505105   1.0000000
N2   N   0.777784297737368   0.555558815535399   0.627467317369940   1.0000000
N2   N   0.611089073237033   0.055538371069976   0.626901700396745   1.0000000
N2   N   0.944451643008064   0.055548356992072   0.626457532234392   1.0000000
N2   N   0.054533441753756   0.110472045646988   0.375000000000000   1.0000000
N2   N   0.555433667980211   0.619238907021225   0.375000000000000   1.0000000
N2   N   0.387819203331733   0.108971739997052   0.375000000000000   1.0000000
N2   N   0.891028260003190   0.612180796668296   0.375000000000000   1.0000000
N2   N   0.722605270559843   0.110472045646954   0.375000000000000   1.0000000
N2   N   0.055547531311270   0.777776330235700   0.875000000000000   1.0000000
N2   N   0.388895465591196   0.777776330235700   0.875000000000000   1.0000000
N2   N   0.222218691582593   0.277776012457920   0.875000000000000   1.0000000
N2   N   0.722223987541690   0.777781308417496   0.875000000000000   1.0000000
N2   N   0.555561085953719   0.277786124513953   0.875000000000000   1.0000000
N2   N   0.888890012264677   0.277775364152479   0.875000000000000   1.0000000
N2   N   0.222222222222221   0.777777777777779   0.375000000000000   1.0000000
N2   N   0.054533441753756   0.277394729440110   0.375000000000000   1.0000000
N2   N   0.380761092978847   0.269528094292448   0.375000000000000   1.0000000
N2   N   0.555236615173884   0.781137682715851   0.375000000000000   1.0000000
N2   N   0.892567734208672   0.781137682715851   0.375000000000000   1.0000000
N2   N   0.723801971499112   0.276198028500443   0.375000000000000   1.0000000
N2   N   0.055553587433073   0.944446412566813   0.875000000000000   1.0000000
N2   N   0.388895465591196   0.944452468688962   0.875000000000000   1.0000000
N2   N   0.222220289943334   0.444438931080361   0.875000000000000   1.0000000
N2   N   0.555555555555557   0.444444444444443   0.875000000000000   1.0000000
N2   N   0.722224635847469   0.944447981445490   0.875000000000000   1.0000000
N2   N   0.888885307803453   0.444438931080361   0.875000000000000   1.0000000
N2   N   0.055702920895812   0.444739175125114   0.375000000000000   1.0000000
N2   N   0.221880956567656   0.943596753483813   0.375000000000000   1.0000000
N2   N   0.555260824875336   0.944297079104068   0.375000000000000   1.0000000
N2   N   0.380761092978830   0.444566332020041   0.375000000000000   1.0000000
N2   N   0.889527954353018   0.945466558245903   0.375000000000000   1.0000000
N2   N   0.730471905707745   0.444566332020038   0.375000000000000   1.0000000
N2   N   0.222223669764267   0.611104534409105   0.875000000000000   1.0000000
N2   N   0.055552018554533   0.111109987735325   0.875000000000000   1.0000000
N2   N   0.555561085953719   0.611108294772887   0.875000000000000   1.0000000
N2   N   0.388896862962021   0.111127059257368   0.875000000000000   1.0000000
N2   N   0.888872940742615   0.611103137037991   0.875000000000000   1.0000000
N2   N   0.056403246516426   0.611617536417365   0.375000000000000   1.0000000
N2   N   0.722224635847469   0.111109987735325   0.875000000000000   1.0000000
N2   N   0.218862317284228   0.107432265791417   0.375000000000000   1.0000000
N2   N   0.387819203331734   0.612180796668296   0.375000000000000   1.0000000
N2   N   0.730471905707747   0.619238907021224   0.375000000000000   1.0000000
N2   N   0.555236615173890   0.107432265791384   0.375000000000000   1.0000000
N2   N   0.388896862962023   0.611103137037991   0.875000000000000   1.0000000
N2   N   0.888888888888886   0.111111111111114   0.375000000000000   1.0000000
N2   N   0.222222222222221   0.777777777777779   0.875000000000000   1.0000000
N2   N   0.055552018554530   0.277775364152479   0.875000000000000   1.0000000
N2   N   0.388891705227084   0.277786124513953   0.875000000000000   1.0000000
N2   N   0.555561068919724   0.777779710056426   0.875000000000000   1.0000000
N2   N   0.888885307803453   0.777779710056426   0.875000000000000   1.0000000
N2   N   0.722223987541690   0.277776012457920   0.875000000000000   1.0000000
N2   N   0.056403246516426   0.778119043432262   0.375000000000000   1.0000000
N2   N   0.388382463582718   0.778119043432086   0.375000000000000   1.0000000
N2   N   0.219062723668038   0.276198028500443   0.375000000000000   1.0000000
N2   N   0.723801971499148   0.780937276332450   0.375000000000000   1.0000000
N2   N   0.555433667980242   0.269528094292381   0.375000000000000   1.0000000
N2   N   0.889527954352800   0.277394729440110   0.375000000000000   1.0000000
N2   N   0.055553587433073   0.444440508199213   0.875000000000000   1.0000000
N2   N   0.222223669764267   0.944452468688962   0.875000000000000   1.0000000
N2   N   0.555559491800511   0.944446412566813   0.875000000000000   1.0000000
N2   N   0.388891705227085   0.444438914046149   0.875000000000000   1.0000000
N2   N   0.888890012264677   0.944447981445490   0.875000000000000   1.0000000
N2   N   0.055702920895811   0.944297079104058   0.375000000000000   1.0000000
N2   N   0.722213875485994   0.444438914046149   0.875000000000000   1.0000000
N2   N   0.388382463582722   0.943596753483813   0.375000000000000   1.0000000
N2   N   0.218862317284229   0.444763384826173   0.375000000000000   1.0000000
N2   N   0.221880956567655   0.611617536417365   0.375000000000000   1.0000000
N2   N   0.722605270559843   0.945466558245903   0.375000000000000   1.0000000
N2   N   0.892567734208685   0.444763384826113   0.375000000000000   1.0000000
N2   N   0.055547531311270   0.611104534409105   0.875000000000000   1.0000000
N2   N   0.222220289943334   0.111114692196369   0.875000000000000   1.0000000
N2   N   0.722213875485994   0.611108294772887   0.875000000000000   1.0000000
N2   N   0.555561068919724   0.111114692196369   0.875000000000000   1.0000000
N2   N   0.888888888888886   0.111111111111114   0.875000000000000   1.0000000
B2   B   0.108675594686916   0.053878432650849   0.375000000000000   1.0000000
B2   B   0.625758555860367   0.584850445054335   0.375000000000000   1.0000000
B2   B   0.444053198712329   0.053348677223646   0.375000000000000   1.0000000
B2   B   0.946651322776513   0.555946801287905   0.375000000000000   1.0000000
B2   B   0.778429269568934   0.055881301451287   0.375000000000000   1.0000000
B2   B   0.111122491767435   0.722227912550357   0.875000000000000   1.0000000
B2   B   0.444443765265725   0.722268718183902   0.875000000000000   1.0000000
B2   B   0.277671079981284   0.222151957071141   0.875000000000000   1.0000000
B2   B   0.777848042928900   0.722328920019077   0.875000000000000   1.0000000
B2   B   0.611147543756900   0.222151957071141   0.875000000000000   1.0000000
B2   B   0.944433324081562   0.222199981496735   0.875000000000000   1.0000000
B2   B   0.277471080467844   0.722528919532113   0.375000000000000   1.0000000
B2   B   0.108130299537788   0.220731816435590   0.375000000000000   1.0000000
B2   B   0.442070787607154   0.217474908547748   0.375000000000000   1.0000000
B2   B   0.612976673278212   0.730628145965490   0.375000000000000   1.0000000
B2   B   0.946651322776457   0.724037854821939   0.375000000000000   1.0000000
B2   B   0.779268183564640   0.220731816435588   0.375000000000000   1.0000000
B2   B   0.111106403747989   0.888893596252100   0.875000000000000   1.0000000
B2   B   0.444453859170528   0.888893596252100   0.875000000000000   1.0000000
B2   B   0.277671079981284   0.388852456243255   0.875000000000000   1.0000000
B2   B   0.611164422105702   0.388835577894035   0.875000000000000   1.0000000
B2   B   0.777817210164709   0.888967753662452   0.875000000000000   1.0000000
B2   B   0.944465725714122   0.388860008959797   0.875000000000000   1.0000000
B2   B   0.108675594686899   0.388130495369379   0.375000000000000   1.0000000
B2   B   0.277471080467844   0.888275494269079   0.375000000000000   1.0000000
B2   B   0.611869504630638   0.891324405313582   0.375000000000000   1.0000000
B2   B   0.415149554945951   0.374241444139752   0.375000000000000   1.0000000
B2   B   0.946121567349125   0.891324405313581   0.375000000000000   1.0000000
B2   B   0.784318139353409   0.387023326721510   0.375000000000000   1.0000000
B2   B   0.277731281815787   0.555556234735078   0.875000000000000   1.0000000
B2   B   0.111060949912481   0.055534274285897   0.875000000000000   1.0000000
B2   B   0.611164422105707   0.555662177545258   0.875000000000000   1.0000000
B2   B   0.444443765265725   0.055508380414852   0.875000000000000   1.0000000
B2   B   0.944491619585077   0.555556234735078   0.875000000000000   1.0000000
B2   B   0.111175331606285   0.555683996545494   0.375000000000000   1.0000000
B2   B   0.777800018503147   0.055566675918282   0.875000000000000   1.0000000
B2   B   0.275962145177882   0.053348677223636   0.375000000000000   1.0000000
B2   B   0.442070787606993   0.557929212392845   0.375000000000000   1.0000000
B2   B   0.782525091452556   0.557929212392848   0.375000000000000   1.0000000
B2   B   0.611869504630638   0.053878432650853   0.375000000000000   1.0000000
B2   B   0.444406175726463   0.555593824273528   0.875000000000000   1.0000000
B2   B   0.944118698548242   0.055881301451290   0.375000000000000   1.0000000
B2   B   0.277772087449633   0.722227912550357   0.875000000000000   1.0000000
B2   B   0.111032246337821   0.222182789835631   0.875000000000000   1.0000000
B2   B   0.444406175726463   0.222145684786388   0.875000000000000   1.0000000
B2   B   0.611147543756900   0.722328920019077   0.875000000000000   1.0000000
B2   B   0.944491619585076   0.722268718183902   0.875000000000000   1.0000000
B2   B   0.777817210164709   0.222182789835640   0.875000000000000   1.0000000
B2   B   0.111724505731256   0.722528919532107   0.375000000000000   1.0000000
B2   B   0.444053198712329   0.724037854821939   0.375000000000000   1.0000000
B2   B   0.269371854034312   0.215681860646161   0.375000000000000   1.0000000
B2   B   0.784318139353413   0.730628145965448   0.375000000000000   1.0000000
B2   B   0.612976673278212   0.215681860646168   0.375000000000000   1.0000000
B2   B   0.944118698548241   0.221570730430805   0.375000000000000   1.0000000
B2   B   0.111060949912481   0.388860008959797   0.875000000000000   1.0000000
B2   B   0.277772087449633   0.888877508232594   0.875000000000000   1.0000000
B2   B   0.611139991040160   0.888939050087358   0.875000000000000   1.0000000
B2   B   0.444337822455019   0.388835577894035   0.875000000000000   1.0000000
B2   B   0.944465725714122   0.888939050087358   0.875000000000000   1.0000000
B2   B   0.111175331606296   0.888824668393792   0.375000000000000   1.0000000
B2   B   0.777848042928900   0.388852456243255   0.875000000000000   1.0000000
B2   B   0.444316003454178   0.888824668393792   0.375000000000000   1.0000000
B2   B   0.269371854034312   0.387023326721512   0.375000000000000   1.0000000
B2   B   0.275962145177882   0.555946801287905   0.375000000000000   1.0000000
B2   B   0.625758555860018   0.374241444139666   0.375000000000000   1.0000000
B2   B   0.779268183564640   0.891869700462330   0.375000000000000   1.0000000
B2   B   0.946121567349125   0.388130495369379   0.375000000000000   1.0000000
B2   B   0.111106403747989   0.555546140829096   0.875000000000000   1.0000000
B2   B   0.277731281815787   0.055508380414852   0.875000000000000   1.0000000
B2   B   0.777854315213740   0.555593824273528   0.875000000000000   1.0000000
B2   B   0.611139991040160   0.055534274285897   0.875000000000000   1.0000000
B2   B   0.944433324081562   0.055566675918282   0.875000000000000   1.0000000
B2   B   0.055489946458265   0.111048273640025   0.122841236529757   1.0000000
B2   B   0.555459636321033   0.611444394047062   0.121867930436519   1.0000000
B2   B   0.388710111275016   0.110753555883171   0.122158257294118   1.0000000
B2   B   0.889246444116645   0.611289888725094   0.122158257294117   1.0000000
B2   B   0.722224993848488   0.111048273640025   0.122841236529753   1.0000000
B2   B   0.055698021012231   0.777832508308934   0.626817424104700   1.0000000
B2   B   0.388801153963600   0.777832508308934   0.626817424104700   1.0000000
B2   B   0.221998906277708   0.277666119805558   0.628044236936690   1.0000000
B2   B   0.722333880194479   0.778001093722220   0.628044236936690   1.0000000
B2   B   0.555459636321030   0.277348575606996   0.628132069563488   1.0000000
B2   B   0.888951726359635   0.277775006151645   0.627158763470874   1.0000000
B2   B   0.222222222222221   0.777777777777779   0.123688218404873   1.0000000
B2   B   0.055489946458267   0.277775006151696   0.122841236529757   1.0000000
B2   B   0.388555605952663   0.277348575606996   0.121867930436512   1.0000000
B2   B   0.555493486645823   0.777949733291642   0.122264234063860   1.0000000
B2   B   0.889122913312487   0.777949733291642   0.122264234063860   1.0000000
B2   B   0.722333880194479   0.277666119805558   0.121955763063190   1.0000000
B2   B   0.055581906223263   0.944418093776775   0.627092956586368   1.0000000
B2   B   0.388801153963600   0.944301978987549   0.626817424104700   1.0000000
B2   B   0.222050266708211   0.444506513353584   0.627735765936652   1.0000000
B2   B   0.555555555555557   0.444444444444443   0.627950705042678   1.0000000
B2   B   0.722224993848488   0.944510053541713   0.627158763470874   1.0000000
B2   B   0.889122913312487   0.444506513353584   0.627735765936652   1.0000000
B2   B   0.055581906223262   0.444497145779900   0.122907043413454   1.0000000
B2   B   0.222167491690792   0.944301978987549   0.123182575895259   1.0000000
B2   B   0.555502854220066   0.944418093776775   0.122907043413454   1.0000000
B2   B   0.388555605952665   0.444540363678927   0.121867930436515   1.0000000
B2   B   0.888951726359635   0.944510053541713   0.122841236529757   1.0000000
B2   B   0.722651424392921   0.444540363678927   0.121867930436514   1.0000000
B2   B   0.222167491690808   0.611198846036434   0.626817424104700   1.0000000
B2   B   0.055489946458273   0.111048273640025   0.627158763470874   1.0000000
B2   B   0.555459636321030   0.611444394047062   0.628132069563501   1.0000000
B2   B   0.388710111275006   0.110753555883170   0.627841742706300   1.0000000
B2   B   0.889246444116625   0.611289888725094   0.627841742706300   1.0000000
B2   B   0.055698021012228   0.611198846036434   0.123182575895259   1.0000000
B2   B   0.722224993848488   0.111048273640025   0.627158763470874   1.0000000
B2   B   0.222050266708212   0.110877086687619   0.122264234063860   1.0000000
B2   B   0.388710111275016   0.611289888725094   0.122158257294116   1.0000000
B2   B   0.722651424392921   0.611444394047062   0.121867930436515   1.0000000
B2   B   0.555493486645823   0.110877086687639   0.122264234063860   1.0000000
B2   B   0.388710111275006   0.611289888725094   0.627841742706300   1.0000000
B2   B   0.888888888888886   0.111111111111114   0.123259008314064   1.0000000
B2   B   0.222222222222221   0.777777777777779   0.626311781595130   1.0000000
B2   B   0.055489946458265   0.277775006151645   0.627158763470874   1.0000000
B2   B   0.388555605952663   0.277348575607017   0.628132069563493   1.0000000
B2   B   0.555493486645831   0.777949733291642   0.627735765936652   1.0000000
B2   B   0.889122913312487   0.777949733291642   0.627735765936652   1.0000000
B2   B   0.722333880194475   0.277666119805558   0.628044236936690   1.0000000
B2   B   0.055698021012231   0.777832508308934   0.123182575895259   1.0000000
B2   B   0.388801153963600   0.777832508308934   0.123182575895264   1.0000000
B2   B   0.221998906277707   0.277666119805558   0.121955763063190   1.0000000
B2   B   0.722333880194479   0.778001093722220   0.121955763063190   1.0000000
B2   B   0.555459636321030   0.277348575606996   0.121867930436515   1.0000000
B2   B   0.888951726359635   0.277775006151696   0.122841236529757   1.0000000
B2   B   0.055581906223255   0.444497145779898   0.627092956586368   1.0000000
B2   B   0.222167491690808   0.944301978987549   0.626817424104700   1.0000000
B2   B   0.555502854220066   0.944418093776775   0.627092956586368   1.0000000
B2   B   0.388555605952665   0.444540363678927   0.628132069563387   1.0000000
B2   B   0.888951726359635   0.944510053541713   0.627158763470874   1.0000000
B2   B   0.055581906223255   0.944418093776775   0.122907043413454   1.0000000
B2   B   0.722651424392921   0.444540363678927   0.628132069563493   1.0000000
B2   B   0.388801153963600   0.944301978987549   0.123182575895263   1.0000000
B2   B   0.222050266708212   0.444506513353584   0.122264234063860   1.0000000
B2   B   0.222167491690792   0.611198846036434   0.123182575895263   1.0000000
B2   B   0.555555555555557   0.444444444444443   0.122049294957315   1.0000000
B2   B   0.722224993848488   0.944510053541713   0.122841236529757   1.0000000
B2   B   0.889122913312487   0.444506513353584   0.122264234063860   1.0000000
B2   B   0.055698021012231   0.611198846036434   0.626817424104700   1.0000000
B2   B   0.222050266708212   0.110877086687619   0.627735765936652   1.0000000
B2   B   0.722651424392921   0.611444394047062   0.628132069563387   1.0000000
B2   B   0.555493486645823   0.110877086687619   0.627735765936652   1.0000000
B2   B   0.888888888888886   0.111111111111114   0.626740991686003   1.0000000


