data_1
_audit_creation_method   'vasp2cif'
_cell_length_a    17.52789999999977
_cell_length_b    17.52789999999977
_cell_length_c    15.0
_cell_angle_alpha    90.0
_cell_angle_beta    90.0
_cell_angle_gamma    119.99999999999916

_symmetry_space_group_name_H-M    'P 1'
loop_
_atom_site_label
_atom_site_type_symbol
_atom_site_fract_x
_atom_site_fract_y
_atom_site_fract_z
_atom_site_occupancy
B2   B   0.905818930267024   0.953683084967897   0.111032379386974   1.0000000
B2   B   0.904356418130026   0.095790122954617   0.111035180857169   1.0000000
B2   B   0.903918888742135   0.238478333397392   0.111053292964597   1.0000000
B2   B   0.904159582312051   0.381338841824076   0.110993004960173   1.0000000
B2   B   0.905560131836433   0.524418474211784   0.110998067957025   1.0000000
B2   B   0.907046633615258   0.667840945981997   0.111035032865697   1.0000000
B2   B   0.907595875829791   0.811676617651964   0.111010455548616   1.0000000
B2   B   0.047984474392823   0.952134527620826   0.111036411005785   1.0000000
B2   B   0.046452497504564   0.094307336142420   0.111026518012270   1.0000000
B2   B   0.046021470619235   0.237520397846020   0.111015805570422   1.0000000
B2   B   0.046417712527607   0.380766871547210   0.111024715251169   1.0000000
B2   B   0.047557085095086   0.523848791149805   0.111026436089288   1.0000000
B2   B   0.048670711243686   0.666802062497097   0.111045676380310   1.0000000
B2   B   0.048808348394271   0.809658726533778   0.111032714295080   1.0000000
B2   B   0.190463235881806   0.951308147390258   0.111035500545911   1.0000000
B2   B   0.188454103266630   0.092526230653714   0.111008610717649   1.0000000
B2   B   0.186823191090008   0.234716575750524   0.110957900558592   1.0000000
B2   B   0.187963476013970   0.379551365169035   0.110994792682937   1.0000000
B2   B   0.189605077805618   0.523399000486027   0.111083037666026   1.0000000
B2   B   0.191019570490806   0.666402088960279   0.111087359928409   1.0000000
B2   B   0.191085864360692   0.809064615101954   0.111008203028057   1.0000000
B2   B   0.333353187813761   0.951477607981474   0.111039353668682   1.0000000
B2   B   0.332293828970544   0.093083961765348   0.111026320294383   1.0000000
B2   B   0.328271112059423   0.231892626055068   0.110908283456365   1.0000000
B2   B   0.326755023333628   0.374297064219945   0.110811103142441   1.0000000
B2   B   0.331850647975517   0.523128198412349   0.110854062137979   1.0000000
B2   B   0.333861318154153   0.666301150021375   0.111090805533316   1.0000000
B2   B   0.333752181909775   0.809139010879201   0.111085133756197   1.0000000
B2   B   0.476311601912328   0.952601622300409   0.111016102374796   1.0000000
B2   B   0.475737155890973   0.094591912817384   0.110986031706072   1.0000000
B2   B   0.474621973700128   0.235870673882773   0.110972673384028   1.0000000
B2   B   0.466584301013120   0.369363307003064   0.110830798414565   1.0000000
B2   B   0.477033017231053   0.668317043613161   0.110886110671334   1.0000000
B2   B   0.476750211077648   0.810557136071709   0.111081181580359   1.0000000
B2   B   0.619387226244145   0.953734569455050   0.111023193667347   1.0000000
B2   B   0.618818184784891   0.095987969891779   0.110999676101531   1.0000000
B2   B   0.618443918624191   0.238631560361158   0.110981889034648   1.0000000
B2   B   0.618235876795606   0.381911153403861   0.110990076654225   1.0000000
B2   B   0.630837925472126   0.533600919190486   0.110857841784566   1.0000000
B2   B   0.625862288216573   0.673416474869406   0.110860234236143   1.0000000
B2   B   0.620589909975042   0.812192065576869   0.110988901647721   1.0000000
B2   B   0.762623465484969   0.954126664984425   0.111015451542164   1.0000000
B2   B   0.761669015667095   0.096227732974667   0.111065875677659   1.0000000
B2   B   0.761344839333464   0.238812474290550   0.111059617421089   1.0000000
B2   B   0.761511627464679   0.381705214520486   0.110985365527652   1.0000000
B2   B   0.764286678053835   0.525521488922732   0.110987808467542   1.0000000
B2   B   0.768270105086387   0.671892598322462   0.110926229419358   1.0000000
B2   B   0.765413075753434   0.813316559056603   0.110952590591284   1.0000000
N2   N   0.953609286903856   0.906054477932418   0.111026543414355   1.0000000
N2   N   0.952001903706933   0.048130115978907   0.111021911204333   1.0000000
N2   N   0.951233386391548   0.190652075079299   0.111020019240119   1.0000000
N2   N   0.951342681570632   0.333520374711023   0.111003578808583   1.0000000
N2   N   0.952375714061802   0.476441950801057   0.110963186224282   1.0000000
N2   N   0.953623158487533   0.619513922550596   0.111026753289033   1.0000000
N2   N   0.954071398531020   0.762849061054196   0.111023541232755   1.0000000
N2   N   0.095640803174739   0.904475955113783   0.111016313995661   1.0000000
N2   N   0.094072717852148   0.046509283811737   0.111019451713731   1.0000000
N2   N   0.092616572275397   0.188813198130969   0.110991705180865   1.0000000
N2   N   0.093142557979396   0.332528311243781   0.111011188273547   1.0000000
N2   N   0.094449582608216   0.475914093304223   0.111043032764402   1.0000000
N2   N   0.095774287060156   0.618967557391302   0.111039561878168   1.0000000
N2   N   0.096085523234109   0.761823786180737   0.110996333106902   1.0000000
N2   N   0.238325299689866   0.904057998253465   0.110995318075418   1.0000000
N2   N   0.237278614019479   0.046044635070579   0.111024579776180   1.0000000
N2   N   0.234237092936875   0.186616414425736   0.110914485300214   1.0000000
N2   N   0.232542095756235   0.328985714387287   0.110924931210966   1.0000000
N2   N   0.235850814566153   0.474985364456747   0.110991681980819   1.0000000
N2   N   0.238351366305839   0.618719338147561   0.111098747468118   1.0000000
N2   N   0.238600579953996   0.761553644743244   0.111040033969938   1.0000000
N2   N   0.381192420132740   0.904382287524613   0.111031700961275   1.0000000
N2   N   0.380638303178445   0.046522090607828   0.111015119122282   1.0000000
N2   N   0.379249881842347   0.187821234830026   0.110929508145120   1.0000000
N2   N   0.373455318990231   0.325349794199749   0.110853814681357   1.0000000
N2   N   0.366769615002433   0.466392767359269   0.110567392965752   1.0000000
N2   N   0.381477694654576   0.618683186835284   0.110933269510516   1.0000000
N2   N   0.381432754310425   0.761807485700892   0.111097346867065   1.0000000
N2   N   0.524244235266495   0.905710640026194   0.111034764875665   1.0000000
N2   N   0.523717823458599   0.047779824793446   0.110962499947194   1.0000000
N2   N   0.523175985525421   0.189841233441430   0.110952020026331   1.0000000
N2   N   0.522056508929035   0.331499803050021   0.110967536320121   1.0000000
N2   N   0.533770128945375   0.633398826591641   0.110681103604868   1.0000000
N2   N   0.525163143743195   0.764311319695873   0.110993926610566   1.0000000
N2   N   0.667621675395024   0.907011014560267   0.111000908012976   1.0000000
N2   N   0.666636532957675   0.048806627767600   0.111016772970357   1.0000000
N2   N   0.666174851456637   0.191301819962724   0.111001316862777   1.0000000
N2   N   0.665856562117414   0.334286924530349   0.110971763995171   1.0000000
N2   N   0.668663068711399   0.478095303330423   0.110983130075382   1.0000000
N2   N   0.674823118585626   0.626727334921669   0.110895835185930   1.0000000
N2   N   0.671157252235288   0.767618786011318   0.110922855752400   1.0000000
N2   N   0.811318223652988   0.907523660023378   0.110991454558059   1.0000000
N2   N   0.809494523721799   0.048912020469512   0.111026535470873   1.0000000
N2   N   0.808880666852219   0.191266974275748   0.111072153912440   1.0000000
N2   N   0.808846512581162   0.333979793895119   0.110997255708572   1.0000000
N2   N   0.810312681006470   0.476970996979086   0.110961176402734   1.0000000
N2   N   0.812317602406923   0.620891822645513   0.110944453739043   1.0000000
N2   N   0.813518313129576   0.765913753341898   0.110912583386976   1.0000000
Se2   Se   0.508408259155508   0.491805401870058   0.110510612451202   1.0000000


