data_1
_audit_creation_method   'vasp2cif'
_cell_length_a    14.93631414619966
_cell_length_b    14.936314146199727
_cell_length_c    13.341276283792837
_cell_angle_alpha    90.0
_cell_angle_beta    90.0
_cell_angle_gamma    119.99999999999984

_symmetry_space_group_name_H-M    'P 1'
loop_
_atom_site_label
_atom_site_type_symbol
_atom_site_fract_x
_atom_site_fract_y
_atom_site_fract_z
_atom_site_occupancy
P2   P   0.444444444444443   0.388888888888886   0.375000000000000   1.0000000
N2   N   0.111118853794317   0.055553234180505   0.125351361710735   1.0000000
N2   N   0.611099065066931   0.555532614554232   0.124336062167088   1.0000000
N2   N   0.444434380386188   0.055553234180505   0.125351361710735   1.0000000
N2   N   0.944450221738515   0.555561797552212   0.125230809751596   1.0000000
N2   N   0.777777777777779   0.055555555555557   0.125041782874056   1.0000000
N2   N   0.111111111111114   0.722222222222221   0.624863764011600   1.0000000
N2   N   0.444434380386188   0.722214479539018   0.624648638289265   1.0000000
N2   N   0.277800718779104   0.222234268266405   0.625663937832911   1.0000000
N2   N   0.777780099152831   0.722214479539018   0.624648638289265   1.0000000
N2   N   0.611101877641635   0.222231455691700   0.624751818019543   1.0000000
N2   N   0.944452050742939   0.222230961380654   0.624842478877961   1.0000000
N2   N   0.277771535781126   0.722221757519640   0.125230809751596   1.0000000
N2   N   0.111129578050065   0.222231455691700   0.125248181980457   1.0000000
N2   N   0.444433549487293   0.222234268266405   0.124336062167088   1.0000000
N2   N   0.611101877641635   0.722203755283272   0.125248181980457   1.0000000
N2   N   0.944450221738515   0.722221757519640   0.125230809751596   1.0000000
N2   N   0.777778910637714   0.222230961380654   0.125157521122038   1.0000000
N2   N   0.111111575813696   0.888883111594814   0.624769190248403   1.0000000
N2   N   0.444434533405986   0.888883933369661   0.624790838766261   1.0000000
N2   N   0.277800718779104   0.388899783846036   0.625663937832911   1.0000000
N2   N   0.611099065066931   0.388899783846036   0.625663937832911   1.0000000
N2   N   0.777778910637714   0.888881282590389   0.624842478877961   1.0000000
N2   N   0.944449399963668   0.388898799927342   0.624790838766261   1.0000000
N2   N   0.111118853794317   0.388898952947141   0.125351361710735   1.0000000
N2   N   0.277771535781126   0.888883111594814   0.125230809751596   1.0000000
N2   N   0.611102371952682   0.888881282590389   0.125157521122038   1.0000000
N2   N   0.444444444444443   0.388888888888886   0.119888699224875   1.0000000
N2   N   0.944449399963668   0.888883933369661   0.125209161233741   1.0000000
N2   N   0.777780099152831   0.388898952947141   0.125351361710735   1.0000000
N2   N   0.277775553996904   0.555557779336432   0.624715606174138   1.0000000
N2   N   0.111118853794317   0.055553234180505   0.624648638289265   1.0000000
N2   N   0.611099065066931   0.555532614554232   0.625663937832911   1.0000000
N2   N   0.444434380386188   0.055553234180505   0.624648638289265   1.0000000
N2   N   0.944450221738515   0.555561797552212   0.624769190248403   1.0000000
N2   N   0.111111575813696   0.555561797552212   0.125230809751596   1.0000000
N2   N   0.777777777777779   0.055555555555557   0.624958217125943   1.0000000
N2   N   0.277775553996904   0.055551107993801   0.125284393825862   1.0000000
N2   N   0.444433549487293   0.555532614554232   0.124336062167088   1.0000000
N2   N   0.777782225339535   0.555557779336432   0.125284393825862   1.0000000
N2   N   0.611102371952682   0.055554422695621   0.125157521122038   1.0000000
N2   N   0.444433549487293   0.555532614554232   0.625663937832911   1.0000000
N2   N   0.944452050742939   0.055554422695621   0.125157521122038   1.0000000
N2   N   0.277771535781126   0.722221757519640   0.624769190248403   1.0000000
N2   N   0.111129578050065   0.222231455691700   0.624751818019543   1.0000000
N2   N   0.444433549487293   0.222234268266405   0.625663937832911   1.0000000
N2   N   0.611101877641635   0.722203755283272   0.624751818019543   1.0000000
N2   N   0.944450221738515   0.722221757519640   0.624769190248403   1.0000000
N2   N   0.777778910637714   0.222230961380654   0.624842478877961   1.0000000
N2   N   0.111111111111114   0.722222222222221   0.125136235988391   1.0000000
N2   N   0.444434380386188   0.722214479539018   0.125351361710735   1.0000000
N2   N   0.277800718779104   0.222234268266405   0.124336062167088   1.0000000
N2   N   0.777780099152831   0.722214479539018   0.125351361710735   1.0000000
N2   N   0.611101877641635   0.222231455691700   0.125248181980457   1.0000000
N2   N   0.944452050742939   0.222230961380654   0.125157521122038   1.0000000
N2   N   0.111118853794317   0.388898952947141   0.624648638289265   1.0000000
N2   N   0.277771535781126   0.888883111594814   0.624769190248403   1.0000000
N2   N   0.611102371952682   0.888881282590389   0.624842478877961   1.0000000
N2   N   0.444444444444443   0.388888888888886   0.630111300775125   1.0000000
N2   N   0.944449399963668   0.888883933369661   0.624790838766261   1.0000000
N2   N   0.111111575813696   0.888883111594814   0.125230809751596   1.0000000
N2   N   0.777780099152831   0.388898952947141   0.624648638289265   1.0000000
N2   N   0.444434533405986   0.888883933369661   0.125209161233741   1.0000000
N2   N   0.277800718779104   0.388899783846036   0.124336062167088   1.0000000
N2   N   0.277775553996904   0.555557779336432   0.125284393825862   1.0000000
N2   N   0.611099065066931   0.388899783846036   0.124336062167088   1.0000000
N2   N   0.777778910637714   0.888881282590389   0.125157521122038   1.0000000
N2   N   0.944449399963668   0.388898799927342   0.125209161233741   1.0000000
N2   N   0.111111575813696   0.555561797552212   0.624769190248403   1.0000000
N2   N   0.277775553996904   0.055551107993801   0.624715606174138   1.0000000
N2   N   0.777782225339535   0.555557779336432   0.624715606174138   1.0000000
N2   N   0.611102371952682   0.055554422695621   0.624842478877961   1.0000000
N2   N   0.944452050742939   0.055554422695621   0.624842478877961   1.0000000
N2   N   0.054834207327923   0.110617483577296   0.375000000000000   1.0000000
N2   N   0.556077384808057   0.612154769616120   0.375000000000000   1.0000000
N2   N   0.388361370650051   0.108036007351510   0.375000000000000   1.0000000
N2   N   0.889866913110142   0.611600123221741   0.375000000000000   1.0000000
N2   N   0.722343947344219   0.110989385989117   0.375000000000000   1.0000000
N2   N   0.055553903368952   0.777779429964385   0.875000000000000   1.0000000
N2   N   0.388893701627524   0.777780161594069   0.875000000000000   1.0000000
N2   N   0.222219970783661   0.277776652058502   0.875000000000000   1.0000000
N2   N   0.722221727977643   0.777778934752330   0.875000000000000   1.0000000
N2   N   0.555556681274834   0.277776652058502   0.875000000000000   1.0000000
N2   N   0.888888036167205   0.277776072334420   0.875000000000000   1.0000000
N2   N   0.222040121516085   0.777686727424710   0.375000000000000   1.0000000
N2   N   0.054834207327923   0.277550057083963   0.375000000000000   1.0000000
N2   N   0.383355563834634   0.266711127669269   0.375000000000000   1.0000000
N2   N   0.555783276249371   0.778499126005411   0.375000000000000   1.0000000
N2   N   0.889750451172030   0.778502220551591   0.375000000000000   1.0000000
N2   N   0.722715849756040   0.277550057083963   0.375000000000000   1.0000000
N2   N   0.055553171739266   0.944446873366784   0.875000000000000   1.0000000
N2   N   0.388893701627524   0.944446873366784   0.875000000000000   1.0000000
N2   N   0.222220373586495   0.444442218443720   0.875000000000000   1.0000000
N2   N   0.555566196169864   0.444449764751593   0.875000000000000   1.0000000
N2   N   0.722222007597666   0.944444015195333   0.875000000000000   1.0000000
N2   N   0.888886459966544   0.444439631705804   0.875000000000000   1.0000000
N2   N   0.054831112781747   0.444581563953777   0.375000000000000   1.0000000
N2   N   0.221733210111593   0.943466420223186   0.375000000000000   1.0000000
N2   N   0.555720022974233   0.944526678153786   0.375000000000000   1.0000000
N2   N   0.383355563834634   0.449977769498695   0.375000000000000   1.0000000
N2   N   0.888806655179543   0.944526678153786   0.375000000000000   1.0000000
N2   N   0.725297325981824   0.444971962683277   0.375000000000000   1.0000000
N2   N   0.222223655928169   0.611109677405166   0.875000000000000   1.0000000
N2   N   0.055554398581004   0.111111605355694   0.875000000000000   1.0000000
N2   N   0.555556681274834   0.611113362549675   0.875000000000000   1.0000000
N2   N   0.388891114889609   0.111111488476110   0.875000000000000   1.0000000
N2   N   0.888886021476989   0.611109677405166   0.875000000000000   1.0000000
N2   N   0.055646605908626   0.611293211817251   0.375000000000000   1.0000000
N2   N   0.722222007597666   0.111111325735669   0.875000000000000   1.0000000
N2   N   0.219674636701451   0.108036007351510   0.375000000000000   1.0000000
N2   N   0.388361370650051   0.613658696631884   0.375000000000000   1.0000000
N2   N   0.725297325981824   0.613658696631884   0.375000000000000   1.0000000
N2   N   0.555783276249371   0.110617483577296   0.375000000000000   1.0000000
N2   N   0.388891114889609   0.611112959746841   0.875000000000000   1.0000000
N2   N   0.888645438644890   0.110989385989117   0.375000000000000   1.0000000
N2   N   0.222225526595431   0.777779429964385   0.875000000000000   1.0000000
N2   N   0.055554398581004   0.277776126558646   0.875000000000000   1.0000000
N2   N   0.388883568581736   0.277767137163471   0.875000000000000   1.0000000
N2   N   0.555557206774690   0.777778934752330   0.875000000000000   1.0000000
N2   N   0.888886459966544   0.777780161594069   0.875000000000000   1.0000000
N2   N   0.722221727977643   0.277776126558646   0.875000000000000   1.0000000
N2   N   0.055646605908626   0.777686727424710   0.375000000000000   1.0000000
N2   N   0.388751769379552   0.778502220551591   0.375000000000000   1.0000000
N2   N   0.221178563717216   0.277255948525279   0.375000000000000   1.0000000
N2   N   0.722715849756040   0.778499126005411   0.375000000000000   1.0000000
N2   N   0.556077384808057   0.277255948525279   0.375000000000000   1.0000000
N2   N   0.888806655179543   0.277613310359102   0.375000000000000   1.0000000
N2   N   0.055553171739266   0.444439631705804   0.875000000000000   1.0000000
N2   N   0.222223655928169   0.944447311856339   0.875000000000000   1.0000000
N2   N   0.555557260998914   0.944445297166123   0.875000000000000   1.0000000
N2   N   0.388883568581736   0.444449764751593   0.875000000000000   1.0000000
N2   N   0.888888036167205   0.944445297166123   0.875000000000000   1.0000000
N2   N   0.054831112781747   0.943582882161299   0.375000000000000   1.0000000
N2   N   0.722221844857227   0.444442218443720   0.875000000000000   1.0000000
N2   N   0.388751769379552   0.943582882161299   0.375000000000000   1.0000000
N2   N   0.219674636701451   0.444971962683277   0.375000000000000   1.0000000
N2   N   0.221733210111593   0.611600123221741   0.375000000000000   1.0000000
N2   N   0.566622205664068   0.449977769498695   0.375000000000000   1.0000000
N2   N   0.722343947344219   0.944687894688439   0.375000000000000   1.0000000
N2   N   0.889750451172030   0.444581563953777   0.375000000000000   1.0000000
N2   N   0.055553903368952   0.611107806737904   0.875000000000000   1.0000000
N2   N   0.222220373586495   0.111111488476110   0.875000000000000   1.0000000
N2   N   0.722221844857227   0.611112959746841   0.875000000000000   1.0000000
N2   N   0.555557206774690   0.111111605355694   0.875000000000000   1.0000000
N2   N   0.888889318137996   0.111111325735669   0.875000000000000   1.0000000
B2   B   0.108738948302523   0.053550930810293   0.375000000000000   1.0000000
B2   B   0.616729638856271   0.561935442416549   0.375000000000000   1.0000000
B2   B   0.444811982507770   0.053550930810293   0.375000000000000   1.0000000
B2   B   0.945041890919624   0.555683423341873   0.375000000000000   1.0000000
B2   B   0.777777777777779   0.055555555555557   0.375000000000000   1.0000000
B2   B   0.111111111111114   0.722222222222221   0.875000000000000   1.0000000
B2   B   0.444452689533000   0.722247593682453   0.875000000000000   1.0000000
B2   B   0.277759641687760   0.222205000887584   0.875000000000000   1.0000000
B2   B   0.777794904149455   0.722247593682453   0.875000000000000   1.0000000
B2   B   0.611127060389243   0.222206272944092   0.875000000000000   1.0000000
B2   B   0.944425805949521   0.222210206734160   0.875000000000000   1.0000000
B2   B   0.277649909991462   0.722691800911086   0.375000000000000   1.0000000
B2   B   0.109136131639082   0.221234732486202   0.375000000000000   1.0000000
B2   B   0.445205803560277   0.216603694477064   0.375000000000000   1.0000000
B2   B   0.612098600847133   0.724197201694254   0.375000000000000   1.0000000
B2   B   0.945041890919624   0.722691800911086   0.375000000000000   1.0000000
B2   B   0.778022994125091   0.221770463113286   0.375000000000000   1.0000000
B2   B   0.111102101526503   0.888881014574342   0.875000000000000   1.0000000
B2   B   0.444455423879507   0.888894378606414   0.875000000000000   1.0000000
B2   B   0.277759641687760   0.388887974133504   0.875000000000000   1.0000000
B2   B   0.611128332445751   0.388887974133504   0.875000000000000   1.0000000
B2   B   0.777784400784648   0.888907527383808   0.875000000000000   1.0000000
B2   B   0.944438954726915   0.388877909453821   0.875000000000000   1.0000000
B2   B   0.108738948302523   0.388521350825559   0.375000000000000   1.0000000
B2   B   0.277649909991462   0.888291442413705   0.375000000000000   1.0000000
B2   B   0.611562870220049   0.889585864345132   0.375000000000000   1.0000000
B2   B   0.944284987722813   0.889048345610516   0.375000000000000   1.0000000
B2   B   0.779782402523043   0.388521350825559   0.375000000000000   1.0000000
B2   B   0.277766890522641   0.555566442810695   0.875000000000000   1.0000000
B2   B   0.111085739650882   0.055538429183881   0.875000000000000   1.0000000
B2   B   0.611128332445751   0.555573691645577   0.875000000000000   1.0000000
B2   B   0.444452689533000   0.055538429183881   0.875000000000000   1.0000000
B2   B   0.944452318758987   0.555554420285490   0.875000000000000   1.0000000
B2   B   0.110641532422250   0.555683423341873   0.375000000000000   1.0000000
B2   B   0.777777777777779   0.055555555555557   0.875000000000000   1.0000000
B2   B   0.276692422985681   0.053384845971370   0.375000000000000   1.0000000
B2   B   0.445205803560277   0.561935442416549   0.375000000000000   1.0000000
B2   B   0.779948487361966   0.556640910347654   0.375000000000000   1.0000000
B2   B   0.611562870220049   0.055310339208245   0.375000000000000   1.0000000
B2   B   0.444445359199824   0.555573691645577   0.875000000000000   1.0000000
B2   B   0.943747468988196   0.055310339208245   0.375000000000000   1.0000000
B2   B   0.277778913047846   0.722231231806832   0.875000000000000   1.0000000
B2   B   0.111079212554848   0.222206272944092   0.875000000000000   1.0000000
B2   B   0.444445359199824   0.222205000887584   0.875000000000000   1.0000000
B2   B   0.611127060389243   0.722254120778487   0.875000000000000   1.0000000
B2   B   0.944452318758987   0.722231231806832   0.875000000000000   1.0000000
B2   B   0.777784400784648   0.222210206734160   0.875000000000000   1.0000000
B2   B   0.111111111111114   0.722222222222221   0.375000000000000   1.0000000
B2   B   0.444811982507770   0.724594385030813   0.375000000000000   1.0000000
B2   B   0.271397890916787   0.216603694477064   0.375000000000000   1.0000000
B2   B   0.779782402523043   0.724594385030813   0.375000000000000   1.0000000
B2   B   0.612098600847133   0.221234732486202   0.375000000000000   1.0000000
B2   B   0.943747468988196   0.221770463113286   0.375000000000000   1.0000000
B2   B   0.111085739650882   0.388880643800329   0.875000000000000   1.0000000
B2   B   0.277778913047846   0.888881014574342   0.875000000000000   1.0000000
B2   B   0.611123126599176   0.888907527383808   0.875000000000000   1.0000000
B2   B   0.444444444444443   0.388888888888886   0.875000000000000   1.0000000
B2   B   0.944438954726915   0.888894378606414   0.875000000000000   1.0000000
B2   B   0.110641532422250   0.888291442413705   0.375000000000000   1.0000000
B2   B   0.777794904149455   0.388880643800329   0.875000000000000   1.0000000
B2   B   0.444763357887705   0.889048345610516   0.375000000000000   1.0000000
B2   B   0.271397890916787   0.388127529773051   0.375000000000000   1.0000000
B2   B   0.276692422985681   0.556640910347654   0.375000000000000   1.0000000
B2   B   0.616729638856271   0.388127529773051   0.375000000000000   1.0000000
B2   B   0.778022994125091   0.889585864345132   0.375000000000000   1.0000000
B2   B   0.944284987722813   0.388569975445623   0.375000000000000   1.0000000
B2   B   0.111102101526503   0.555554420285490   0.875000000000000   1.0000000
B2   B   0.277766890522641   0.055533781045283   0.875000000000000   1.0000000
B2   B   0.777799552288053   0.555566442810695   0.875000000000000   1.0000000
B2   B   0.611123126599176   0.055548932548689   0.875000000000000   1.0000000
B2   B   0.944425805949521   0.055548932548689   0.875000000000000   1.0000000
B2   B   0.055491211233353   0.111056338649521   0.124975665015488   1.0000000
B2   B   0.555602442709949   0.611204885419888   0.124078617493029   1.0000000
B2   B   0.388847231859469   0.110989781301005   0.124668197283388   1.0000000
B2   B   0.888982802248813   0.611158067791077   0.125003007695056   1.0000000
B2   B   0.722232163845125   0.111101169488210   0.124900156328325   1.0000000
B2   B   0.055569131415424   0.777764201917912   0.625035056213774   1.0000000
B2   B   0.388858679596715   0.777805999236369   0.624978565081585   1.0000000
B2   B   0.222128447913446   0.277730890623388   0.625921382506971   1.0000000
B2   B   0.722276994683815   0.777842122099983   0.625024334984512   1.0000000
B2   B   0.555602442709949   0.277730890623388   0.625921382506971   1.0000000
B2   B   0.888891703152043   0.277783406304085   0.625046048398254   1.0000000
B2   B   0.222195070502495   0.777764201917912   0.124964943786227   1.0000000
B2   B   0.055491211233353   0.277768205917160   0.124975665015488   1.0000000
B2   B   0.388855715490908   0.277711430981822   0.122015637227031   1.0000000
B2   B   0.555565127416175   0.777842122099983   0.124975665015488   1.0000000
B2   B   0.888947319639648   0.777805999236369   0.125021434918416   1.0000000
B2   B   0.722276994683815   0.277768205917160   0.124975665015488   1.0000000
B2   B   0.055527334096966   0.944386013693681   0.624978565081585   1.0000000
B2   B   0.388858679596715   0.944386013693681   0.624978565081585   1.0000000
B2   B   0.222142549441530   0.444486101473860   0.625331802716612   1.0000000
B2   B   0.555621902351513   0.444477617842421   0.627984362772970   1.0000000
B2   B   0.722232163845125   0.944464327690245   0.625099843671675   1.0000000
B2   B   0.888947319639648   0.444474653736613   0.624978565081585   1.0000000
B2   B   0.055527334096966   0.444474653736613   0.125021434918416   1.0000000
B2   B   0.222175265542258   0.944350531084516   0.125003007695056   1.0000000
B2   B   0.555549927029252   0.944441630181286   0.124953951601746   1.0000000
B2   B   0.388855715490908   0.444477617842421   0.122015637227031   1.0000000
B2   B   0.888891703152043   0.944441630181286   0.124953951601746   1.0000000
B2   B   0.722343552032330   0.444486101473860   0.124668197283388   1.0000000
B2   B   0.222175265542258   0.611158067791077   0.624996992304944   1.0000000
B2   B   0.055491211233353   0.111056338649521   0.625024334984512   1.0000000
B2   B   0.555602442709949   0.611204885419888   0.625921382506971   1.0000000
B2   B   0.388847231859469   0.110989781301005   0.625331802716612   1.0000000
B2   B   0.888982802248813   0.611158067791077   0.624996992304944   1.0000000
B2   B   0.055569131415424   0.611138262830841   0.124964943786227   1.0000000
B2   B   0.722232163845125   0.111101169488210   0.625099843671675   1.0000000
B2   B   0.222142549441530   0.110989781301005   0.124668197283388   1.0000000
B2   B   0.388847231859469   0.611190783891807   0.124668197283388   1.0000000
B2   B   0.722343552032330   0.611190783891807   0.124668197283388   1.0000000
B2   B   0.555565127416175   0.111056338649521   0.124975665015488   1.0000000
B2   B   0.388847231859469   0.611190783891807   0.625331802716612   1.0000000
B2   B   0.888869005643083   0.111101169488210   0.124900156328325   1.0000000
B2   B   0.222195070502495   0.777764201917912   0.625035056213774   1.0000000
B2   B   0.055491211233353   0.277768205917160   0.625024334984512   1.0000000
B2   B   0.388855715490908   0.277711430981822   0.627984362772970   1.0000000
B2   B   0.555565127416175   0.777842122099983   0.625024334984512   1.0000000
B2   B   0.888947319639648   0.777805999236369   0.624978565081585   1.0000000
B2   B   0.722276994683815   0.277768205917160   0.625024334984512   1.0000000
B2   B   0.055569131415424   0.777764201917912   0.124964943786227   1.0000000
B2   B   0.388858679596715   0.777805999236369   0.125021434918416   1.0000000
B2   B   0.222128447913446   0.277730890623388   0.124078617493029   1.0000000
B2   B   0.722276994683815   0.777842122099983   0.124975665015488   1.0000000
B2   B   0.555602442709949   0.277730890623388   0.124078617493029   1.0000000
B2   B   0.888891703152043   0.277783406304085   0.124953951601746   1.0000000
B2   B   0.055527334096966   0.444474653736613   0.624978565081585   1.0000000
B2   B   0.222175265542258   0.944350531084516   0.624996992304944   1.0000000
B2   B   0.555549927029252   0.944441630181286   0.625046048398254   1.0000000
B2   B   0.388855715490908   0.444477617842421   0.627984362772970   1.0000000
B2   B   0.888891703152043   0.944441630181286   0.625046048398254   1.0000000
B2   B   0.055527334096966   0.944386013693681   0.125021434918416   1.0000000
B2   B   0.722343552032330   0.444486101473860   0.625331802716612   1.0000000
B2   B   0.388858679596715   0.944386013693681   0.125021434918416   1.0000000
B2   B   0.222142549441530   0.444486101473860   0.124668197283388   1.0000000
B2   B   0.222175265542258   0.611158067791077   0.125003007695056   1.0000000
B2   B   0.555621902351513   0.444477617842421   0.122015637227031   1.0000000
B2   B   0.722232163845125   0.944464327690245   0.124900156328325   1.0000000
B2   B   0.888947319639648   0.444474653736613   0.125021434918416   1.0000000
B2   B   0.055569131415424   0.611138262830841   0.625035056213774   1.0000000
B2   B   0.222142549441530   0.110989781301005   0.625331802716612   1.0000000
B2   B   0.722343552032330   0.611190783891807   0.625331802716612   1.0000000
B2   B   0.555565127416175   0.111056338649521   0.625024334984512   1.0000000
B2   B   0.888869005643083   0.111101169488210   0.625099843671675   1.0000000


