data_1
_audit_creation_method   'vasp2cif'
_cell_length_a    17.52789999999977
_cell_length_b    17.52789999999977
_cell_length_c    15.0
_cell_angle_alpha    90.0
_cell_angle_beta    90.0
_cell_angle_gamma    119.99999999999916

_symmetry_space_group_name_H-M    'P 1'
loop_
_atom_site_label
_atom_site_type_symbol
_atom_site_fract_x
_atom_site_fract_y
_atom_site_fract_z
_atom_site_occupancy
B2   B   0.907864920953773   0.952762762095098   0.110707426789490   1.0000000
B2   B   0.908624844762392   0.095465052090592   0.110778914202357   1.0000000
B2   B   0.908880049873221   0.237808568901215   0.110734106468609   1.0000000
B2   B   0.908867837511679   0.380349118462882   0.110693680969852   1.0000000
B2   B   0.907437081568136   0.522908646144286   0.110756945958165   1.0000000
B2   B   0.905582181398976   0.665170706738019   0.110787032693653   1.0000000
B2   B   0.904110516956493   0.807131409915272   0.110705503878391   1.0000000
B2   B   0.050311001807003   0.953745446974384   0.110708447881274   1.0000000
B2   B   0.052342941699570   0.097273121775916   0.110787840986450   1.0000000
B2   B   0.052171248289705   0.239097489508131   0.110831057163869   1.0000000
B2   B   0.051265338214460   0.381330022087112   0.110763484601272   1.0000000
B2   B   0.049766254253917   0.524297733184587   0.110730545860296   1.0000000
B2   B   0.048831221806828   0.667276287666641   0.110779324984606   1.0000000
B2   B   0.048770937875351   0.810250061845267   0.110742614083121   1.0000000
B2   B   0.193264975384609   0.955078345392958   0.110696409887700   1.0000000
B2   B   0.196701922909790   0.100359039767526   0.110727793295634   1.0000000
B2   B   0.197157627522144   0.242331616423446   0.110783352196979   1.0000000
B2   B   0.194584918442743   0.382625709967331   0.110784644988479   1.0000000
B2   B   0.191482804439470   0.525094157296497   0.110776556048306   1.0000000
B2   B   0.190882028687802   0.668305122208213   0.110746500259271   1.0000000
B2   B   0.191836241593262   0.811452995543918   0.110736514563504   1.0000000
B2   B   0.335636170899841   0.954921886536973   0.110723024706529   1.0000000
B2   B   0.337813384363834   0.099385035215243   0.110737602802691   1.0000000
B2   B   0.344979561735078   0.248870074535161   0.110794206988736   1.0000000
B2   B   0.341844387208007   0.387470875687380   0.110764670387169   1.0000000
B2   B   0.332655226397351   0.526575204441926   0.110741626326119   1.0000000
B2   B   0.331893549556530   0.669271968648719   0.110744615230801   1.0000000
B2   B   0.334421744088689   0.811926276831245   0.110758466928627   1.0000000
B2   B   0.478188379108322   0.953588349263497   0.110752595158169   1.0000000
B2   B   0.479488122265413   0.096101211603714   0.110764385346779   1.0000000
B2   B   0.481976528624410   0.239840680587651   0.110816659140863   1.0000000
B2   B   0.501208025673437   0.398128213889988   0.110842291917048   1.0000000
B2   B   0.470769123563722   0.668767694129283   0.110696372336183   1.0000000
B2   B   0.476954462228509   0.811407481349693   0.110759318244719   1.0000000
B2   B   0.621236167126297   0.953121911912197   0.110731014678865   1.0000000
B2   B   0.622187623170912   0.094562981906139   0.110742080702672   1.0000000
B2   B   0.623300438456541   0.235725778238462   0.110753183814503   1.0000000
B2   B   0.625352674475660   0.375736302243966   0.110802690666356   1.0000000
B2   B   0.604447854056262   0.496714310845733   0.110820459265223   1.0000000
B2   B   0.619547942665492   0.811916020355228   0.110681270481544   1.0000000
B2   B   0.764679877886055   0.952483729125601   0.110728951522858   1.0000000
B2   B   0.765378745853016   0.094778232235342   0.110727422151971   1.0000000
B2   B   0.766080820664790   0.236839176978812   0.110708168459839   1.0000000
B2   B   0.766841128535121   0.378802828827384   0.110723615975306   1.0000000
B2   B   0.763645597313489   0.519518872068766   0.110744969092599   1.0000000
B2   B   0.758930869215151   0.657841299565770   0.110725338363070   1.0000000
B2   B   0.764717573387544   0.809755382031765   0.110624788069438   1.0000000
P2   P   0.614153793318450   0.658916487786302   0.110639204958660   1.0000000
N2   N   0.953880428450686   0.903864632981780   0.110689296268523   1.0000000
N2   N   0.956386834846039   0.048212665022251   0.110754865477437   1.0000000
N2   N   0.956586440221600   0.190568713283731   0.110779043390575   1.0000000
N2   N   0.956304527600641   0.332928714630045   0.110708295698545   1.0000000
N2   N   0.955217915293786   0.475675124242973   0.110704305971712   1.0000000
N2   N   0.954035158182006   0.618528774900323   0.110782765851383   1.0000000
N2   N   0.953084800178143   0.761093970122137   0.110741183526658   1.0000000
N2   N   0.097480053756055   0.906030594044420   0.110686958281145   1.0000000
N2   N   0.099895144851952   0.049978928325502   0.110723044259716   1.0000000
N2   N   0.100655061640036   0.192610952479381   0.110800544949240   1.0000000
N2   N   0.099015091920814   0.334065525768264   0.110788176024373   1.0000000
N2   N   0.096906415092831   0.476611874348085   0.110740122640622   1.0000000
N2   N   0.096147464492570   0.619781307174758   0.110725728799020   1.0000000
N2   N   0.096478360833195   0.762924414732747   0.110741807018326   1.0000000
N2   N   0.240148484263073   0.906896769366101   0.110694444788060   1.0000000
N2   N   0.242112489025335   0.050711071784608   0.110691115313139   1.0000000
N2   N   0.246601211577914   0.196752277423397   0.110743798326713   1.0000000
N2   N   0.244417091247297   0.337283973418550   0.110756904080895   1.0000000
N2   N   0.238299761080104   0.477457140975098   0.110763234078271   1.0000000
N2   N   0.237338816273628   0.620618677511368   0.110741400447016   1.0000000
N2   N   0.239059279151976   0.763834954577881   0.110734659932281   1.0000000
N2   N   0.382842311804404   0.906973037486799   0.110733179880866   1.0000000
N2   N   0.384080829090562   0.049924677142239   0.110722076374673   1.0000000
N2   N   0.386671914650707   0.194559159328669   0.110769517944252   1.0000000
N2   N   0.396662909597726   0.346466694784566   0.110795149479896   1.0000000
N2   N   0.380700504939828   0.481763604798192   0.110674753553715   1.0000000
N2   N   0.377231497384486   0.621944851460987   0.110719470972871   1.0000000
N2   N   0.381597501553853   0.764654571990675   0.110738349311142   1.0000000
N2   N   0.525863961127738   0.906225545779589   0.110737451584096   1.0000000
N2   N   0.526842842708042   0.048140433955644   0.110736713639288   1.0000000
N2   N   0.528268295669737   0.190285557769833   0.110770374243898   1.0000000
N2   N   0.531606114966926   0.332982236556022   0.110821773980395   1.0000000
N2   N   0.471440596918129   0.524734211269075   0.110552290349523   1.0000000
N2   N   0.508552798108441   0.614801216807705   0.110577352241335   1.0000000
N2   N   0.524427902451835   0.764043288174291   0.110705627349800   1.0000000
N2   N   0.669172442429919   0.906101778723607   0.110701331085520   1.0000000
N2   N   0.670012308781625   0.047551003595632   0.110715340919554   1.0000000
N2   N   0.670979379835295   0.188789294231917   0.110717635553122   1.0000000
N2   N   0.672755302631826   0.329514571927467   0.110735650058608   1.0000000
N2   N   0.670456819928439   0.469265825283688   0.110751729558559   1.0000000
N2   N   0.662127926077808   0.600508411388979   0.110716747028261   1.0000000
N2   N   0.669687387778964   0.766878280366310   0.110565250654911   1.0000000
N2   N   0.812340866021770   0.904783169594713   0.110659418710084   1.0000000
N2   N   0.813100619378561   0.047454926425331   0.110738981561285   1.0000000
N2   N   0.813687434525701   0.189636094980265   0.110698142739073   1.0000000
N2   N   0.814335299162117   0.331727299741563   0.110678064824002   1.0000000
N2   N   0.813152906075174   0.473861137566656   0.110717796042042   1.0000000
N2   N   0.810794930590786   0.615501312374062   0.110749092317487   1.0000000
N2   N   0.807139879951672   0.756817067660935   0.110649481647458   1.0000000


