data_1
_audit_creation_method   'vasp2cif'
_cell_length_a    14.93631414619966
_cell_length_b    14.936314146199727
_cell_length_c    13.341276283792837
_cell_angle_alpha    90.0
_cell_angle_beta    90.0
_cell_angle_gamma    119.99999999999984

_symmetry_space_group_name_H-M    'P 1'
loop_
_atom_site_label
_atom_site_type_symbol
_atom_site_fract_x
_atom_site_fract_y
_atom_site_fract_z
_atom_site_occupancy
Si2   Si   0.555555555555557   0.444444444444443   0.375000000000000   1.0000000
N2   N   0.111097888796615   0.055552599057026   0.125206658309672   1.0000000
N2   N   0.611177881750871   0.555689096834805   0.121787993739840   1.0000000
N2   N   0.444453935232727   0.055569824864858   0.125307390104676   1.0000000
N2   N   0.944430175135165   0.555546064767273   0.125307390104676   1.0000000
N2   N   0.777786258535222   0.055559795934261   0.124997871558670   1.0000000
N2   N   0.111104966959284   0.722219150146372   0.624651938695340   1.0000000
N2   N   0.444453935232727   0.722217443701203   0.624692609895326   1.0000000
N2   N   0.277743350865271   0.222209815700093   0.625456934604422   1.0000000
N2   N   0.777790184299827   0.722256649134700   0.625456934604422   1.0000000
N2   N   0.611133131501595   0.222209815700093   0.625456934604422   1.0000000
N2   N   0.944440204065611   0.222213741464793   0.625002128441516   1.0000000
N2   N   0.277780849853665   0.722219150146372   0.125348061304642   1.0000000
N2   N   0.111078253183979   0.222205793258644   0.124978651231381   1.0000000
N2   N   0.444455882195804   0.222245097725045   0.124247894472960   1.0000000
N2   N   0.611133131501595   0.722256649134700   0.124543065395507   1.0000000
N2   N   0.944430175135165   0.722217443701203   0.125307390104676   1.0000000
N2   N   0.777794206741257   0.222205793258644   0.124978651231381   1.0000000
N2   N   0.111107915490437   0.888892084509478   0.624659180902896   1.0000000
N2   N   0.444450835685818   0.888892084509478   0.624659180902896   1.0000000
N2   N   0.277743350865271   0.388866868498520   0.625456934604408   1.0000000
N2   N   0.611177881750871   0.388822118249262   0.628212006260160   1.0000000
N2   N   0.777794206741257   0.888921746816092   0.625021348768597   1.0000000
N2   N   0.944447400943011   0.388878623072860   0.624793341690373   1.0000000
N2   N   0.111097888796615   0.388878623072860   0.125206658309672   1.0000000
N2   N   0.277780849853665   0.888895033040659   0.125348061304642   1.0000000
N2   N   0.611121376926947   0.888902111203235   0.125206658309672   1.0000000
N2   N   0.444310903165166   0.388822118249262   0.121787993739840   1.0000000
N2   N   0.944447400943011   0.888902111203235   0.125206658309672   1.0000000
N2   N   0.777790184299827   0.388866868498520   0.124543065395507   1.0000000
N2   N   0.277782556298717   0.555546064767273   0.624692609895326   1.0000000
N2   N   0.111097888796615   0.055552599057026   0.624793341690373   1.0000000
N2   N   0.611177881750871   0.555689096834805   0.628212006260160   1.0000000
N2   N   0.444453935232727   0.055569824864858   0.624692609895326   1.0000000
N2   N   0.944430175135165   0.555546064767273   0.624692609895326   1.0000000
N2   N   0.111107915490437   0.555549164314117   0.125340819097098   1.0000000
N2   N   0.777786258535222   0.055559795934261   0.625002128441516   1.0000000
N2   N   0.277782556298717   0.055569824864858   0.125307390104676   1.0000000
N2   N   0.444455882195804   0.555544117804111   0.124247894472960   1.0000000
N2   N   0.777754902275057   0.555544117804111   0.124247894472960   1.0000000
N2   N   0.611121376926947   0.055552599057026   0.125206658309672   1.0000000
N2   N   0.444455882195804   0.555544117804111   0.625752105527041   1.0000000
N2   N   0.944440204065611   0.055559795934261   0.124997871558670   1.0000000
N2   N   0.277780849853665   0.722219150146372   0.624651938695340   1.0000000
N2   N   0.111078253183979   0.222205793258644   0.625021348768597   1.0000000
N2   N   0.444455882195804   0.222245097725045   0.625752105527041   1.0000000
N2   N   0.611133131501595   0.722256649134700   0.625456934604408   1.0000000
N2   N   0.944430175135165   0.722217443701203   0.624692609895326   1.0000000
N2   N   0.777794206741257   0.222205793258644   0.625021348768597   1.0000000
N2   N   0.111104966959284   0.722219150146372   0.125348061304642   1.0000000
N2   N   0.444453935232727   0.722217443701203   0.125307390104676   1.0000000
N2   N   0.277743350865278   0.222209815700093   0.124543065395507   1.0000000
N2   N   0.777790184299827   0.722256649134700   0.124543065395507   1.0000000
N2   N   0.611133131501595   0.222209815700093   0.124543065395507   1.0000000
N2   N   0.944440204065611   0.222213741464793   0.124997871558670   1.0000000
N2   N   0.111097888796615   0.388878623072860   0.624793341690373   1.0000000
N2   N   0.277780849853665   0.888895033040659   0.624651938695340   1.0000000
N2   N   0.611121376926947   0.888902111203235   0.624793341690373   1.0000000
N2   N   0.444310903165166   0.388822118249262   0.628212006260160   1.0000000
N2   N   0.944447400943011   0.888902111203235   0.624793341690373   1.0000000
N2   N   0.111107915490437   0.888892084509478   0.125340819097098   1.0000000
N2   N   0.777790184299827   0.388866868498520   0.625456934604422   1.0000000
N2   N   0.444450835685818   0.888892084509478   0.125340819097098   1.0000000
N2   N   0.277743350865278   0.388866868498520   0.124543065395507   1.0000000
N2   N   0.277782556298717   0.555546064767273   0.125307390104676   1.0000000
N2   N   0.611177881750871   0.388822118249262   0.121787993739840   1.0000000
N2   N   0.777794206741257   0.888921746816092   0.124978651231381   1.0000000
N2   N   0.944447400943011   0.388878623072860   0.125206658309672   1.0000000
N2   N   0.111107915490437   0.555549164314117   0.624659180902896   1.0000000
N2   N   0.277782556298717   0.055569824864858   0.624692609895326   1.0000000
N2   N   0.777754902275057   0.555544117804111   0.625752105527041   1.0000000
N2   N   0.611121376926947   0.055552599057026   0.624793341690373   1.0000000
N2   N   0.944440204065611   0.055559795934261   0.625002128441516   1.0000000
N2   N   0.054564877806022   0.110458525319391   0.375000000000000   1.0000000
N2   N   0.555094016567969   0.619714214713614   0.375000000000000   1.0000000
N2   N   0.387558623104911   0.108450579543168   0.375000000000000   1.0000000
N2   N   0.891549420456828   0.612441376895038   0.375000000000000   1.0000000
N2   N   0.722560314179984   0.110458525319391   0.375000000000000   1.0000000
N2   N   0.055561108781665   0.777780420976184   0.875000000000000   1.0000000
N2   N   0.388885978861240   0.777780420976184   0.875000000000000   1.0000000
N2   N   0.222222164958950   0.277777749146154   0.875000000000000   1.0000000
N2   N   0.722222250853777   0.777777835041028   0.875000000000000   1.0000000
N2   N   0.555546547918383   0.277763981651798   0.875000000000000   1.0000000
N2   N   0.888891115489264   0.277781216517783   0.875000000000000   1.0000000
N2   N   0.222222222222221   0.777777777777779   0.375000000000000   1.0000000
N2   N   0.054564877806022   0.277439685819959   0.375000000000000   1.0000000
N2   N   0.380285785286286   0.268713135187590   0.375000000000000   1.0000000
N2   N   0.555113853627566   0.781221130045668   0.375000000000000   1.0000000
N2   N   0.892773943084825   0.781221130045768   0.375000000000000   1.0000000
N2   N   0.723791457817097   0.276208542182954   0.375000000000000   1.0000000
N2   N   0.055557173788934   0.944442826211045   0.875000000000000   1.0000000
N2   N   0.388885978861240   0.944438891218243   0.875000000000000   1.0000000
N2   N   0.222220169537263   0.444450133274933   0.875000000000000   1.0000000
N2   N   0.555555555555557   0.444444444444443   0.875000000000000   1.0000000
N2   N   0.722218783482168   0.944443232304754   0.875000000000000   1.0000000
N2   N   0.888896630404350   0.444450133274933   0.875000000000000   1.0000000
N2   N   0.055736109383404   0.444805552100150   0.375000000000000   1.0000000
N2   N   0.221809535592745   0.943411631515771   0.375000000000000   1.0000000
N2   N   0.555194447899974   0.944263890616537   0.375000000000000   1.0000000
N2   N   0.380285785286286   0.444905983431997   0.375000000000000   1.0000000
N2   N   0.889541474680761   0.945435122193906   0.375000000000000   1.0000000
N2   N   0.731286864812158   0.444905983431997   0.375000000000000   1.0000000
N2   N   0.222219579023781   0.611114021138662   0.875000000000000   1.0000000
N2   N   0.055556767695161   0.111108884510679   0.875000000000000   1.0000000
N2   N   0.555546547918383   0.611115899599801   0.875000000000000   1.0000000
N2   N   0.388881834708551   0.111097002750557   0.875000000000000   1.0000000
N2   N   0.888902997249548   0.611118165291303   0.875000000000000   1.0000000
N2   N   0.056588368484164   0.611731237410309   0.375000000000000   1.0000000
N2   N   0.722218783482168   0.111108884510679   0.875000000000000   1.0000000
N2   N   0.218778869954269   0.107226056915120   0.375000000000000   1.0000000
N2   N   0.387558623104911   0.612441376895038   0.375000000000000   1.0000000
N2   N   0.731286864812158   0.619714214713614   0.375000000000000   1.0000000
N2   N   0.555113853627566   0.107226056915120   0.375000000000000   1.0000000
N2   N   0.388881834708551   0.611118165291303   0.875000000000000   1.0000000
N2   N   0.888888888888886   0.111111111111114   0.375000000000000   1.0000000
N2   N   0.222222222222221   0.777777777777779   0.875000000000000   1.0000000
N2   N   0.055556767695161   0.277781216517783   0.875000000000000   1.0000000
N2   N   0.388884100399994   0.277763981651798   0.875000000000000   1.0000000
N2   N   0.555549866724989   0.777779830462780   0.875000000000000   1.0000000
N2   N   0.888896630404350   0.777779830462780   0.875000000000000   1.0000000
N2   N   0.722222250853777   0.277777749146154   0.875000000000000   1.0000000
N2   N   0.056588368484157   0.778190464407320   0.375000000000000   1.0000000
N2   N   0.388268762589804   0.778190464407320   0.375000000000000   1.0000000
N2   N   0.219083751032543   0.276208542182954   0.375000000000000   1.0000000
N2   N   0.723791457817097   0.780916248967421   0.375000000000000   1.0000000
N2   N   0.555094016567969   0.268713135187590   0.375000000000000   1.0000000
N2   N   0.889541474680761   0.277439685819959   0.375000000000000   1.0000000
N2   N   0.055557173788934   0.444447680911196   0.875000000000000   1.0000000
N2   N   0.222219579023781   0.944438891218243   0.875000000000000   1.0000000
N2   N   0.555552319088776   0.944442826211045   0.875000000000000   1.0000000
N2   N   0.388884100399994   0.444453452081539   0.875000000000000   1.0000000
N2   N   0.888891115489264   0.944443232304754   0.875000000000000   1.0000000
N2   N   0.055736109383411   0.944263890616537   0.375000000000000   1.0000000
N2   N   0.722236018348226   0.444453452081539   0.875000000000000   1.0000000
N2   N   0.388268762589804   0.943411631515771   0.375000000000000   1.0000000
N2   N   0.218778869954269   0.444886146372406   0.375000000000000   1.0000000
N2   N   0.221809535592745   0.611731237410309   0.375000000000000   1.0000000
N2   N   0.722560314179984   0.945435122193906   0.375000000000000   1.0000000
N2   N   0.892773943084825   0.444886146372406   0.375000000000000   1.0000000
N2   N   0.055561108781665   0.611114021138662   0.875000000000000   1.0000000
N2   N   0.222220169537263   0.111103369595594   0.875000000000000   1.0000000
N2   N   0.722236018348226   0.611115899599801   0.875000000000000   1.0000000
N2   N   0.555549866724989   0.111103369595594   0.875000000000000   1.0000000
N2   N   0.888888888888886   0.111111111111114   0.875000000000000   1.0000000
B2   B   0.109098800644565   0.054006066787816   0.375000000000000   1.0000000
B2   B   0.623663591624238   0.580660516581287   0.375000000000000   1.0000000
B2   B   0.443913666290989   0.053693315658658   0.375000000000000   1.0000000
B2   B   0.946306684341249   0.556086333708898   0.375000000000000   1.0000000
B2   B   0.778244228784464   0.055788781058857   0.375000000000000   1.0000000
B2   B   0.111108609532095   0.722220971432665   0.875000000000000   1.0000000
B2   B   0.444442137737717   0.722212465830501   0.875000000000000   1.0000000
B2   B   0.277808951011282   0.222239209111338   0.875000000000000   1.0000000
B2   B   0.777760790888611   0.722191048988684   0.875000000000000   1.0000000
B2   B   0.611096924766716   0.222239209111338   0.875000000000000   1.0000000
B2   B   0.944446939959180   0.222227213251703   0.875000000000000   1.0000000
B2   B   0.277492143544329   0.722507856455841   0.375000000000000   1.0000000
B2   B   0.108966149621459   0.221149741477444   0.375000000000000   1.0000000
B2   B   0.442667674186429   0.218668681706306   0.375000000000000   1.0000000
B2   B   0.612097654091580   0.729017642016501   0.375000000000000   1.0000000
B2   B   0.946306684341249   0.723553683965739   0.375000000000000   1.0000000
B2   B   0.778850258522714   0.221149741477444   0.375000000000000   1.0000000
B2   B   0.111112035766776   0.888887964233244   0.875000000000000   1.0000000
B2   B   0.444442595133097   0.888887964233244   0.875000000000000   1.0000000
B2   B   0.277808951011282   0.388903075233279   0.875000000000000   1.0000000
B2   B   0.611091258490782   0.388908741509194   0.875000000000000   1.0000000
B2   B   0.777768828041101   0.888870989415556   0.875000000000000   1.0000000
B2   B   0.944440922957981   0.388896382286068   0.875000000000000   1.0000000
B2   B   0.109098800644565   0.388426067190077   0.375000000000000   1.0000000
B2   B   0.277492143544329   0.888317620421980   0.375000000000000   1.0000000
B2   B   0.611573932809717   0.890901199355421   0.375000000000000   1.0000000
B2   B   0.419339483418484   0.376336408376021   0.375000000000000   1.0000000
B2   B   0.945993933212138   0.890901199355421   0.375000000000000   1.0000000
B2   B   0.783586654591723   0.387902345908478   0.375000000000000   1.0000000
B2   B   0.277787534169585   0.555557862262356   0.875000000000000   1.0000000
B2   B   0.111122125994618   0.055559077041935   0.875000000000000   1.0000000
B2   B   0.611091258490782   0.555515850314940   0.875000000000000   1.0000000
B2   B   0.444442137737717   0.055563005240668   0.875000000000000   1.0000000
B2   B   0.944436994759267   0.555557862262356   0.875000000000000   1.0000000
B2   B   0.111243660301161   0.555820653935481   0.375000000000000   1.0000000
B2   B   0.777772786748239   0.055553060040816   0.875000000000000   1.0000000
B2   B   0.276446316034305   0.053693315658658   0.375000000000000   1.0000000
B2   B   0.442667674186429   0.557332325813588   0.375000000000000   1.0000000
B2   B   0.781331318293806   0.557332325813588   0.375000000000000   1.0000000
B2   B   0.611573932809717   0.054006066787816   0.375000000000000   1.0000000
B2   B   0.444453943734443   0.555546056265431   0.875000000000000   1.0000000
B2   B   0.944211218941130   0.055788781058857   0.375000000000000   1.0000000
B2   B   0.277779028567313   0.722220971432665   0.875000000000000   1.0000000
B2   B   0.111129010584378   0.222231171958871   0.875000000000000   1.0000000
B2   B   0.444453943734443   0.222241220802248   0.875000000000000   1.0000000
B2   B   0.611096924766716   0.722191048988684   0.875000000000000   1.0000000
B2   B   0.944436994759267   0.722212465830501   0.875000000000000   1.0000000
B2   B   0.777768828041101   0.222231171958871   0.875000000000000   1.0000000
B2   B   0.111682379578156   0.722507856455841   0.375000000000000   1.0000000
B2   B   0.443913666290989   0.723553683965739   0.375000000000000   1.0000000
B2   B   0.270982357983312   0.216413345408291   0.375000000000000   1.0000000
B2   B   0.783586654591723   0.729017642016501   0.375000000000000   1.0000000
B2   B   0.612097654091580   0.216413345408291   0.375000000000000   1.0000000
B2   B   0.944211218941130   0.221755771215599   0.375000000000000   1.0000000
B2   B   0.111122125994618   0.388896382286068   0.875000000000000   1.0000000
B2   B   0.277779028567313   0.888891390467962   0.875000000000000   1.0000000
B2   B   0.611103617713931   0.888877874005513   0.875000000000000   1.0000000
B2   B   0.444484149685118   0.388908741509194   0.875000000000000   1.0000000
B2   B   0.944440922957981   0.888877874005513   0.875000000000000   1.0000000
B2   B   0.111243660301161   0.888756339698852   0.375000000000000   1.0000000
B2   B   0.777760790888597   0.388903075233279   0.875000000000000   1.0000000
B2   B   0.444179346064412   0.888756339698852   0.375000000000000   1.0000000
B2   B   0.270982357983312   0.387902345908478   0.375000000000000   1.0000000
B2   B   0.276446316034305   0.556086333708898   0.375000000000000   1.0000000
B2   B   0.623663591624238   0.376336408376021   0.375000000000000   1.0000000
B2   B   0.778850258522714   0.891033850378500   0.375000000000000   1.0000000
B2   B   0.945993933212138   0.388426067190077   0.375000000000000   1.0000000
B2   B   0.111112035766776   0.555557404866816   0.875000000000000   1.0000000
B2   B   0.277787534169585   0.055563005240668   0.875000000000000   1.0000000
B2   B   0.777758779197786   0.555546056265431   0.875000000000000   1.0000000
B2   B   0.611103617713931   0.055559077041935   0.875000000000000   1.0000000
B2   B   0.944446939959180   0.055553060040816   0.875000000000000   1.0000000
B2   B   0.055543961412845   0.111113114944601   0.125006917982632   1.0000000
B2   B   0.555621070164742   0.611049309719123   0.123476246882718   1.0000000
B2   B   0.388937196266139   0.111207725865566   0.124990702444101   1.0000000
B2   B   0.888792274134385   0.611062803733858   0.124990702444101   1.0000000
B2   B   0.722235820198443   0.111113114944601   0.125006917982632   1.0000000
B2   B   0.055526756901398   0.777767755186259   0.624694704454815   1.0000000
B2   B   0.388907664951615   0.777767755186259   0.624694704454815   1.0000000
B2   B   0.222216847967775   0.277775090650553   0.625392394568899   1.0000000
B2   B   0.722224909349496   0.777783152032230   0.625392394568899   1.0000000
B2   B   0.555621070164742   0.277905093778848   0.626523753117318   1.0000000
B2   B   0.888886885055406   0.277764179801615   0.624993082017409   1.0000000
B2   B   0.222222222222221   0.777777777777779   0.125279359207847   1.0000000
B2   B   0.055543961412845   0.277764179801615   0.125006917982632   1.0000000
B2   B   0.388950690280785   0.277905093778848   0.123476246882718   1.0000000
B2   B   0.555582225004899   0.777768398891139   0.125003298280196   1.0000000
B2   B   0.888852840552998   0.777768398891139   0.125003298280196   1.0000000
B2   B   0.722224909349496   0.277775090650553   0.124607605430994   1.0000000
B2   B   0.055547130296993   0.944452869702942   0.624773032176679   1.0000000
B2   B   0.388907664951615   0.944473243098771   0.624694704454815   1.0000000
B2   B   0.222231601108782   0.444417774995107   0.624996701719839   1.0000000
B2   B   0.555555555555557   0.444444444444443   0.626509813685173   1.0000000
B2   B   0.722235820198443   0.944456038586986   0.624993082017409   1.0000000
B2   B   0.888852840552998   0.444417774995107   0.624996701719839   1.0000000
B2   B   0.055547130296993   0.444427593927393   0.125226967823354   1.0000000
B2   B   0.222232244813687   0.944473243098771   0.125305295545204   1.0000000
B2   B   0.555572406072656   0.944452869702942   0.125226967823354   1.0000000
B2   B   0.388950690280785   0.444378929835224   0.123476246882718   1.0000000
B2   B   0.888886885055406   0.944456038586986   0.125006917982632   1.0000000
B2   B   0.722094906221081   0.444378929835224   0.123476246882718   1.0000000
B2   B   0.222232244813687   0.611092335048413   0.624694704454815   1.0000000
B2   B   0.055543961412845   0.111113114944601   0.624993082017409   1.0000000
B2   B   0.555621070164742   0.611049309719123   0.626523753117318   1.0000000
B2   B   0.388937196266139   0.111207725865566   0.625009297555913   1.0000000
B2   B   0.888792274134385   0.611062803733858   0.625009297555913   1.0000000
B2   B   0.055526756901398   0.611092335048413   0.125305295545204   1.0000000
B2   B   0.722235820198443   0.111113114944601   0.624993082017409   1.0000000
B2   B   0.222231601108782   0.111147159447024   0.125003298280196   1.0000000
B2   B   0.388937196266139   0.611062803733858   0.124990702444101   1.0000000
B2   B   0.722094906221081   0.611049309719123   0.123476246882718   1.0000000
B2   B   0.555582225004899   0.111147159447024   0.125003298280196   1.0000000
B2   B   0.388937196266139   0.611062803733858   0.625009297555913   1.0000000
B2   B   0.888888888888886   0.111111111111114   0.124964085329532   1.0000000
B2   B   0.222222222222221   0.777777777777779   0.624720640791948   1.0000000
B2   B   0.055543961412845   0.277764179801615   0.624993082017409   1.0000000
B2   B   0.388950690280792   0.277905093778848   0.626523753117318   1.0000000
B2   B   0.555582225004899   0.777768398891139   0.624996701719839   1.0000000
B2   B   0.888852840552998   0.777768398891139   0.624996701719839   1.0000000
B2   B   0.722224909349496   0.277775090650553   0.625392394568899   1.0000000
B2   B   0.055526756901398   0.777767755186259   0.125305295545204   1.0000000
B2   B   0.388907664951622   0.777767755186259   0.125305295545204   1.0000000
B2   B   0.222216847967775   0.277775090650553   0.124607605430994   1.0000000
B2   B   0.722224909349496   0.777783152032230   0.124607605430994   1.0000000
B2   B   0.555621070164742   0.277905093778848   0.123476246882718   1.0000000
B2   B   0.888886885055406   0.277764179801615   0.125006917982632   1.0000000
B2   B   0.055547130296993   0.444427593927393   0.624773032176679   1.0000000
B2   B   0.222232244813687   0.944473243098771   0.624694704454815   1.0000000
B2   B   0.555572406072656   0.944452869702942   0.624773032176679   1.0000000
B2   B   0.388950690280792   0.444378929835224   0.626523753117318   1.0000000
B2   B   0.888886885055406   0.944456038586986   0.624993082017409   1.0000000
B2   B   0.055547130296993   0.944452869702942   0.125226967823354   1.0000000
B2   B   0.722094906221081   0.444378929835224   0.626523753117318   1.0000000
B2   B   0.388907664951615   0.944473243098771   0.125305295545204   1.0000000
B2   B   0.222231601108782   0.444417774995107   0.125003298280196   1.0000000
B2   B   0.222232244813687   0.611092335048413   0.125305295545204   1.0000000
B2   B   0.555555555555557   0.444444444444443   0.123490186314825   1.0000000
B2   B   0.722235820198443   0.944456038586986   0.125006917982632   1.0000000
B2   B   0.888852840552998   0.444417774995107   0.125003298280196   1.0000000
B2   B   0.055526756901398   0.611092335048413   0.624694704454815   1.0000000
B2   B   0.222231601108782   0.111147159447024   0.624996701719839   1.0000000
B2   B   0.722094906221081   0.611049309719123   0.626523753117318   1.0000000
B2   B   0.555582225004899   0.111147159447024   0.624996701719839   1.0000000
B2   B   0.888888888888886   0.111111111111114   0.625035914670587   1.0000000


