data_1
_audit_creation_method   'vasp2cif'
_cell_length_a    17.52789999999977
_cell_length_b    17.52789999999977
_cell_length_c    15.0
_cell_angle_alpha    90.0
_cell_angle_beta    90.0
_cell_angle_gamma    119.99999999999916

_symmetry_space_group_name_H-M    'P 1'
loop_
_atom_site_label
_atom_site_type_symbol
_atom_site_fract_x
_atom_site_fract_y
_atom_site_fract_z
_atom_site_occupancy
B2   B   0.905721108937506   0.952765930834635   0.111374902216127   1.0000000
B2   B   0.904687079671515   0.095330507718739   0.110711094208795   1.0000000
B2   B   0.904313381505036   0.238296919915377   0.110695170279774   1.0000000
B2   B   0.904209813676411   0.381165049092409   0.110683567946546   1.0000000
B2   B   0.904580313107855   0.523890923387631   0.109703514513335   1.0000000
B2   B   0.906288123097510   0.666928226118190   0.109202184955113   1.0000000
B2   B   0.906930947472907   0.810419483217692   0.111720246109117   1.0000000
B2   B   0.048279756588988   0.951734685389535   0.110890598270264   1.0000000
B2   B   0.047265099494382   0.094309701120995   0.110201754718091   1.0000000
B2   B   0.047087395869846   0.237547214949409   0.109439631088964   1.0000000
B2   B   0.047485429497900   0.380619584032643   0.109514060794786   1.0000000
B2   B   0.048296501835614   0.523306671261420   0.110737870715856   1.0000000
B2   B   0.048777011483460   0.666091379631904   0.111337685905359   1.0000000
B2   B   0.048870316067278   0.809015495661668   0.111400251930335   1.0000000
B2   B   0.190987508066540   0.951118109803853   0.110501704161715   1.0000000
B2   B   0.189598910242325   0.093065339443789   0.110204501419570   1.0000000
B2   B   0.188797555227855   0.235707151072769   0.109086838307638   1.0000000
B2   B   0.189996922109928   0.379664662589356   0.104782039936504   1.0000000
B2   B   0.192197387414331   0.522722157477141   0.107579444661066   1.0000000
B2   B   0.191862535173367   0.665529283978329   0.110714387038000   1.0000000
B2   B   0.191560463825984   0.808435231531977   0.110882640065614   1.0000000
B2   B   0.333903492941443   0.951211539958778   0.110429832127575   1.0000000
B2   B   0.333059169429989   0.093692717472219   0.113031504982240   1.0000000
B2   B   0.330265653946971   0.233832465692534   0.117274742528280   1.0000000
B2   B   0.329969976994213   0.376255089158200   0.107719702264137   1.0000000
B2   B   0.336643481110579   0.521942779873487   0.101652253567155   1.0000000
B2   B   0.335190991445043   0.664828484392924   0.110931091314660   1.0000000
B2   B   0.334470588805883   0.808137394213701   0.110949902750147   1.0000000
B2   B   0.476688207785189   0.951702286542079   0.110734364295721   1.0000000
B2   B   0.476085858514093   0.095384474695958   0.112081653367352   1.0000000
B2   B   0.475070222255721   0.238850362713935   0.120560152363237   1.0000000
B2   B   0.467794128649127   0.376666740702619   0.138783593555680   1.0000000
B2   B   0.478047094341846   0.663410242329556   0.121010723103814   1.0000000
B2   B   0.477292860968139   0.807837609751472   0.114376288888598   1.0000000
B2   B   0.619375729872401   0.952533501565990   0.112079682900696   1.0000000
B2   B   0.618829165752511   0.095791888018755   0.110844209248643   1.0000000
B2   B   0.618201196610046   0.239368842591371   0.113000752139753   1.0000000
B2   B   0.616816194651126   0.383157484350931   0.111245942483481   1.0000000
B2   B   0.623188912021623   0.532193102955652   0.084487329263810   1.0000000
B2   B   0.623760264643751   0.670096741090717   0.115370461869168   1.0000000
B2   B   0.620342950928355   0.810063856260926   0.117572420098724   1.0000000
B2   B   0.762457457033543   0.952937131061651   0.112067937084969   1.0000000
B2   B   0.761706066473949   0.095696126627554   0.110804042244271   1.0000000
B2   B   0.761219697170176   0.238776009214050   0.110857721455724   1.0000000
B2   B   0.760608318674130   0.381769488760686   0.108969107700649   1.0000000
B2   B   0.761072945355438   0.524894038161115   0.102092493428044   1.0000000
B2   B   0.766141632055653   0.669710716027236   0.105686807143418   1.0000000
B2   B   0.764305589897940   0.811256086632799   0.112922107831336   1.0000000
N2   N   0.953366571062534   0.905015664512233   0.111639455918911   1.0000000
N2   N   0.952425233626759   0.047599000215764   0.110796083740977   1.0000000
N2   N   0.952052231250213   0.190543837823960   0.110373167639703   1.0000000
N2   N   0.952092747696843   0.333564889982138   0.110803342079688   1.0000000
N2   N   0.952406958094057   0.476290933498239   0.110721732153219   1.0000000
N2   N   0.953120415978025   0.618895984125304   0.110415488329375   1.0000000
N2   N   0.953531425642116   0.761848237263238   0.111318668481285   1.0000000
N2   N   0.095933658291886   0.904056592426705   0.110949055604389   1.0000000
N2   N   0.094991938150164   0.046638472713300   0.110033308399651   1.0000000
N2   N   0.094434983936843   0.189454002064329   0.109519942505806   1.0000000
N2   N   0.095217911933475   0.332913647421220   0.108198681167972   1.0000000
N2   N   0.096544945547683   0.475764205722378   0.109442453129681   1.0000000
N2   N   0.096449762950496   0.618356882021821   0.111320950726451   1.0000000
N2   N   0.096301313151248   0.761160386531163   0.111367962935296   1.0000000
N2   N   0.238836008092910   0.903679193145671   0.110427097577990   1.0000000
N2   N   0.238153299347606   0.046451083149561   0.110605100618279   1.0000000
N2   N   0.236503388567633   0.188190734314570   0.110667017165365   1.0000000
N2   N   0.236594063723667   0.331071402889632   0.105767525413308   1.0000000
N2   N   0.240978987620738   0.474970186852268   0.103242540093553   1.0000000
N2   N   0.240061106866483   0.617708691032228   0.109486125789628   1.0000000
N2   N   0.239341135752411   0.760656270285444   0.110832853380479   1.0000000
N2   N   0.381639543442959   0.903543680233741   0.110329696735905   1.0000000
N2   N   0.381100597840939   0.046866995611456   0.111397684692406   1.0000000
N2   N   0.380232255373798   0.189531368498390   0.118138099466003   1.0000000
N2   N   0.376500457240244   0.329346302889195   0.124056226350261   1.0000000
N2   N   0.384090397998707   0.470891121792089   0.094707711218630   1.0000000
N2   N   0.383762942031344   0.616278373865438   0.111094000412857   1.0000000
N2   N   0.382310899964529   0.759961144456635   0.112192356852132   1.0000000
N2   N   0.524237228690505   0.903471276232065   0.112049717155298   1.0000000
N2   N   0.523704159680521   0.047589034929784   0.110681107549750   1.0000000
N2   N   0.522987385266758   0.191791065209156   0.114791833883538   1.0000000
N2   N   0.521916092163891   0.337078987273774   0.128100240825375   1.0000000
N2   N   0.529111535526476   0.616015107671743   0.128338348020321   1.0000000
N2   N   0.525037178053243   0.759084372775286   0.119431442655953   1.0000000
N2   N   0.667091360069466   0.904812532212899   0.113580090142981   1.0000000
N2   N   0.666434738246988   0.047920560276286   0.110695379142788   1.0000000
N2   N   0.665807185782462   0.191545537902410   0.111269124795100   1.0000000
N2   N   0.664569334777184   0.335391763789867   0.111039663121230   1.0000000
N2   N   0.662847064184632   0.478077653947302   0.094635028257613   1.0000000
N2   N   0.670612977571672   0.623467278780043   0.099462778962869   1.0000000
N2   N   0.668950993770758   0.763475272506678   0.116736279871969   1.0000000
N2   N   0.810563341529381   0.905596626499930   0.111924603848509   1.0000000
N2   N   0.809468961341204   0.047967181390173   0.110957119295669   1.0000000
N2   N   0.808966286991542   0.191037553376014   0.110773189131166   1.0000000
N2   N   0.808447882667592   0.334176907991834   0.110416391499970   1.0000000
N2   N   0.808170609307886   0.476984411056747   0.107339310221787   1.0000000
N2   N   0.810420147827350   0.619746209659838   0.104775313185952   1.0000000
N2   N   0.811814126262687   0.763537432610308   0.111489255721278   1.0000000
P2   P   0.493457474332127   0.506596097001389   0.111704391207804   1.0000000


