data_1
_audit_creation_method   'vasp2cif'
_cell_length_a    14.93631414619966
_cell_length_b    14.936314146199727
_cell_length_c    13.341276283792837
_cell_angle_alpha    90.0
_cell_angle_beta    90.0
_cell_angle_gamma    119.99999999999984

_symmetry_space_group_name_H-M    'P 1'
loop_
_atom_site_label
_atom_site_type_symbol
_atom_site_fract_x
_atom_site_fract_y
_atom_site_fract_z
_atom_site_occupancy
C2   C   0.609299770990133   0.387327901268306   0.375000000000000   1.0000000
C2   C   0.444694796944844   0.387327901268306   0.375000000000000   1.0000000
C2   C   0.553539850196276   0.440413033725880   0.375000000000000   1.0000000
N2   N   0.111136554091666   0.055623157936849   0.124941236272458   1.0000000
N2   N   0.611267189259689   0.555867711852708   0.124403870386649   1.0000000
N2   N   0.444494452349587   0.055654321331427   0.124967578059551   1.0000000
N2   N   0.944443975031659   0.555600096475931   0.124935283093664   1.0000000
N2   N   0.777845429218348   0.055676385880222   0.124904346743154   1.0000000
N2   N   0.111128054873949   0.722271864300066   0.625068345912226   1.0000000
N2   N   0.444499375802594   0.722282924985860   0.625078942495407   1.0000000
N2   N   0.277791885895251   0.222298832023307   0.625074237478754   1.0000000
N2   N   0.777873402212696   0.722443253507112   0.625153540167745   1.0000000
N2   N   0.611173612794727   0.222298832023307   0.625074237478754   1.0000000
N2   N   0.944491469997689   0.222316273328713   0.625082830762410   1.0000000
N2   N   0.277810476092789   0.722271864300066   0.124931654087774   1.0000000
N2   N   0.111117776299940   0.222277933388366   0.124906995940171   1.0000000
N2   N   0.444515156126144   0.222363645585624   0.124983729352028   1.0000000
N2   N   0.611236517961088   0.722443253507112   0.124846459832255   1.0000000
N2   N   0.944450215849930   0.722282924985860   0.124921057504593   1.0000000
N2   N   0.777826823755097   0.222277933388366   0.124906995940171   1.0000000
N2   N   0.111135739602238   0.888951089930394   0.625065283959447   1.0000000
N2   N   0.444482016994827   0.888951089930394   0.625065283959447   1.0000000
N2   N   0.277805572639893   0.388930587732874   0.625047511727617   1.0000000
N2   N   0.611168232153242   0.388970692848085   0.625289029494169   1.0000000
N2   N   0.777882510388719   0.889098354110766   0.625127558563081   1.0000000
N2   N   0.944470391964509   0.388949930162253   0.625056015072338   1.0000000
N2   N   0.111146204864415   0.388949930162253   0.124943984927662   1.0000000
N2   N   0.277816228782666   0.888965790898661   0.124935107406183   1.0000000
N2   N   0.611180063343364   0.889011369870972   0.124919706918367   1.0000000
N2   N   0.444469127361515   0.388970692848085   0.124710970505831   1.0000000
N2   N   0.944497973194280   0.889011369870972   0.124919706918367   1.0000000
N2   N   0.777791681759652   0.388930587732874   0.124952488272383   1.0000000
N2   N   0.277822788110937   0.555600096475931   0.625064716906336   1.0000000
N2   N   0.111136554091666   0.055623157936849   0.625058763727542   1.0000000
N2   N   0.611267189259689   0.555867711852708   0.625596129613351   1.0000000
N2   N   0.444494452349587   0.055654321331427   0.625032421940449   1.0000000
N2   N   0.944443975031659   0.555600096475931   0.625064716906336   1.0000000
N2   N   0.111134943849394   0.555603221032116   0.124931535241215   1.0000000
N2   N   0.777845429218348   0.055676385880222   0.625095653256846   1.0000000
N2   N   0.277826535648504   0.055654321331427   0.124967578059551   1.0000000
N2   N   0.444532418135541   0.555649176941448   0.124943977347959   1.0000000
N2   N   0.777783425472571   0.555649176941448   0.124943977347959   1.0000000
N2   N   0.611153270511855   0.055623157936849   0.124941236272458   1.0000000
N2   N   0.444532418135541   0.555649176941448   0.625056022652041   1.0000000
N2   N   0.944497623328538   0.055676385880222   0.124904346743154   1.0000000
N2   N   0.277810476092789   0.722271864300066   0.625068345912226   1.0000000
N2   N   0.111117776299940   0.222277933388366   0.625093004059829   1.0000000
N2   N   0.444515156126144   0.222363645585624   0.625016270647972   1.0000000
N2   N   0.611236517961088   0.722443253507112   0.625153540167745   1.0000000
N2   N   0.944450215849930   0.722282924985860   0.625078942495407   1.0000000
N2   N   0.777826823755097   0.222277933388366   0.625093004059829   1.0000000
N2   N   0.111128054873949   0.722271864300066   0.124931654087774   1.0000000
N2   N   0.444499375802594   0.722282924985860   0.124921057504593   1.0000000
N2   N   0.277791885895251   0.222298832023307   0.124925762521246   1.0000000
N2   N   0.777873402212696   0.722443253507112   0.124846459832255   1.0000000
N2   N   0.611173612794727   0.222298832023307   0.124925762521246   1.0000000
N2   N   0.944491469997689   0.222316273328713   0.124917169237589   1.0000000
N2   N   0.111146204864415   0.388949930162253   0.625056015072338   1.0000000
N2   N   0.277816228782666   0.888965790898661   0.625064892593816   1.0000000
N2   N   0.611180063343364   0.889011369870972   0.625080293081633   1.0000000
N2   N   0.444469127361515   0.388970692848085   0.625289029494169   1.0000000
N2   N   0.944497973194280   0.889011369870972   0.625080293081633   1.0000000
N2   N   0.111135739602238   0.888951089930394   0.124934716040553   1.0000000
N2   N   0.777791681759652   0.388930587732874   0.625047511727617   1.0000000
N2   N   0.444482016994827   0.888951089930394   0.124934716040553   1.0000000
N2   N   0.277805572639893   0.388930587732874   0.124952488272383   1.0000000
N2   N   0.277822788110937   0.555600096475931   0.124935283093664   1.0000000
N2   N   0.611168232153242   0.388970692848085   0.124710970505831   1.0000000
N2   N   0.777882510388719   0.889098354110766   0.124872441436919   1.0000000
N2   N   0.944470391964509   0.388949930162253   0.124943984927662   1.0000000
N2   N   0.111134943849394   0.555603221032116   0.625068464758785   1.0000000
N2   N   0.277826535648504   0.055654321331427   0.625032421940449   1.0000000
N2   N   0.777783425472571   0.555649176941448   0.625056022652041   1.0000000
N2   N   0.611153270511855   0.055623157936849   0.625058763727542   1.0000000
N2   N   0.944497623328538   0.055676385880222   0.625095653256846   1.0000000
N2   N   0.055723674513128   0.111165405541978   0.375000000000000   1.0000000
N2   N   0.555742017972316   0.612084479778678   0.375000000000000   1.0000000
N2   N   0.389435178768556   0.112203690870456   0.375000000000000   1.0000000
N2   N   0.887728739694694   0.609961525204460   0.375000000000000   1.0000000
N2   N   0.722108397695514   0.111165405541978   0.375000000000000   1.0000000
N2   N   0.055537434651076   0.777739313590044   0.875000000000000   1.0000000
N2   N   0.388868545605633   0.777739313590044   0.875000000000000   1.0000000
N2   N   0.222198797300599   0.277726489425796   0.875000000000000   1.0000000
N2   N   0.722190746138062   0.777714825609460   0.875000000000000   1.0000000
N2   N   0.555524516221947   0.277716620925102   0.875000000000000   1.0000000
N2   N   0.888870487226966   0.277747905916639   0.875000000000000   1.0000000
N2   N   0.222112188835782   0.777557711004900   0.375000000000000   1.0000000
N2   N   0.055609622235236   0.277815707460457   0.375000000000000   1.0000000
N2   N   0.388860023936849   0.279268779867063   0.375000000000000   1.0000000
N2   N   0.555362154570772   0.778093750975703   0.375000000000000   1.0000000
N2   N   0.889398263071595   0.778093750975703   0.375000000000000   1.0000000
N2   N   0.722208619409451   0.277565630212721   0.375000000000000   1.0000000
N2   N   0.055532541253305   0.944393711270672   0.875000000000000   1.0000000
N2   N   0.388867567333651   0.944401495501754   0.875000000000000   1.0000000
N2   N   0.222209244297424   0.444411540715833   0.875000000000000   1.0000000
N2   N   0.555532671784081   0.444398676901492   0.875000000000000   1.0000000
N2   N   0.722194469340773   0.944393047925007   0.875000000000000   1.0000000
N2   N   0.888868963085073   0.444411540715833   0.875000000000000   1.0000000
N2   N   0.055507121942888   0.444347577219104   0.375000000000000   1.0000000
N2   N   0.222427372273463   0.944518251089632   0.375000000000000   1.0000000
N2   N   0.555380013984806   0.944731588552960   0.375000000000000   1.0000000
N2   N   0.390196690271947   0.442056967376673   0.375000000000000   1.0000000
N2   N   0.889097687380693   0.944582420186108   0.375000000000000   1.0000000
N2   N   0.718526943771391   0.442056967376673   0.375000000000000   1.0000000
N2   N   0.222206289301318   0.611079531992112   0.875000000000000   1.0000000
N2   N   0.055534756871395   0.111060625145629   0.875000000000000   1.0000000
N2   N   0.555515080958432   0.611048551206088   0.875000000000000   1.0000000
N2   N   0.388862798838312   0.111058931009967   0.875000000000000   1.0000000
N2   N   0.888869653568755   0.611068178875399   0.875000000000000   1.0000000
N2   N   0.055295631247234   0.610849280080324   0.375000000000000   1.0000000
N2   N   0.722192534940898   0.111060625145629   0.875000000000000   1.0000000
N2   N   0.222838886143172   0.111474352153039   0.375000000000000   1.0000000
N2   N   0.388899452176423   0.609961525204460   0.375000000000000   1.0000000
N2   N   0.723009128473027   0.612084479778678   0.375000000000000   1.0000000
N2   N   0.555302132676531   0.111474352153039   0.375000000000000   1.0000000
N2   N   0.388865191973301   0.611068178875399   0.875000000000000   1.0000000
N2   N   0.888909212251060   0.111151757835463   0.375000000000000   1.0000000
N2   N   0.222205702652728   0.777744738638792   0.875000000000000   1.0000000
N2   N   0.055544085356337   0.277747905916639   0.875000000000000   1.0000000
N2   N   0.388858771369819   0.277716620925102   0.875000000000000   1.0000000
N2   N   0.555525757638765   0.777725007047558   0.875000000000000   1.0000000
N2   N   0.888865916075458   0.777725007047558   0.875000000000000   1.0000000
N2   N   0.722194358791861   0.277726489425796   0.875000000000000   1.0000000
N2   N   0.055329365155264   0.777420971335856   0.375000000000000   1.0000000
N2   N   0.388758272847256   0.777420971335856   0.375000000000000   1.0000000
N2   N   0.222023677469935   0.277565630212721   0.375000000000000   1.0000000
N2   N   0.722435311777325   0.778203956887987   0.375000000000000   1.0000000
N2   N   0.557075422596878   0.279268779867063   0.375000000000000   1.0000000
N2   N   0.888872751891884   0.277815707460457   0.375000000000000   1.0000000
N2   N   0.055542001995860   0.444417337325049   0.875000000000000   1.0000000
N2   N   0.222200594834768   0.944401495501754   0.875000000000000   1.0000000
N2   N   0.555527836684037   0.944393711270672   0.875000000000000   1.0000000
N2   N   0.388862685659322   0.444394574693239   0.875000000000000   1.0000000
N2   N   0.888865245250898   0.944393047925007   0.875000000000000   1.0000000
N2   N   0.056018241234826   0.944731588552960   0.375000000000000   1.0000000
N2   N   0.722198555700581   0.444394574693239   0.875000000000000   1.0000000
N2   N   0.388757545482833   0.944518251089632   0.375000000000000   1.0000000
N2   N   0.223020924202685   0.444249108531088   0.375000000000000   1.0000000
N2   N   0.222220315499754   0.610849280080324   0.375000000000000   1.0000000
N2   N   0.722151399472080   0.944582420186108   0.375000000000000   1.0000000
N2   N   0.887894850995066   0.444249108531088   0.375000000000000   1.0000000
N2   N   0.055539909357458   0.611079531992112   0.875000000000000   1.0000000
N2   N   0.222195581216935   0.111054766752301   0.875000000000000   1.0000000
N2   N   0.722200136914320   0.611048551206088   0.875000000000000   1.0000000
N2   N   0.555525852202030   0.111054766752301   0.875000000000000   1.0000000
N2   N   0.888870459032291   0.111074251397923   0.875000000000000   1.0000000
B2   B   0.111659869197148   0.055873927959585   0.375000000000000   1.0000000
B2   B   0.610861487021370   0.555056307376070   0.375000000000000   1.0000000
B2   B   0.444227285661812   0.055905086968842   0.375000000000000   1.0000000
B2   B   0.943874655919588   0.555318522352395   0.375000000000000   1.0000000
B2   B   0.777633557434250   0.055434780094887   0.375000000000000   1.0000000
B2   B   0.111082923571875   0.722188912821140   0.875000000000000   1.0000000
B2   B   0.444427378312240   0.722151009490465   0.875000000000000   1.0000000
B2   B   0.277794155899332   0.222190710677066   0.875000000000000   1.0000000
B2   B   0.777714041263071   0.722118459498724   0.875000000000000   1.0000000
B2   B   0.611063221444405   0.222190710677066   0.875000000000000   1.0000000
B2   B   0.944429323167486   0.222191979668308   0.875000000000000   1.0000000
B2   B   0.277708238974279   0.721974326148950   0.375000000000000   1.0000000
B2   B   0.111236839021647   0.222261626993003   0.375000000000000   1.0000000
B2   B   0.445258209221513   0.223849751776361   0.375000000000000   1.0000000
B2   B   0.610782997363521   0.721961751374530   0.375000000000000   1.0000000
B2   B   0.943764097813311   0.721485707580509   0.375000000000000   1.0000000
B2   B   0.777691454638027   0.222261626993003   0.375000000000000   1.0000000
B2   B   0.111082986498362   0.888839954772033   0.875000000000000   1.0000000
B2   B   0.444423634940342   0.888839954772033   0.875000000000000   1.0000000
B2   B   0.277805691098696   0.388847705371136   0.875000000000000   1.0000000
B2   B   0.611064921959946   0.388858637306855   0.875000000000000   1.0000000
B2   B   0.777731958139677   0.888797249612681   0.875000000000000   1.0000000
B2   B   0.944413216754413   0.388862296165931   0.875000000000000   1.0000000
B2   B   0.111590572782455   0.388900615688921   0.375000000000000   1.0000000
B2   B   0.277713809409174   0.888760952151676   0.375000000000000   1.0000000
B2   B   0.610891766659564   0.888913320205504   0.375000000000000   1.0000000
B2   B   0.944688220212611   0.888913320205504   0.375000000000000   1.0000000
B2   B   0.776230853033566   0.388579897626965   0.375000000000000   1.0000000
B2   B   0.277788008094884   0.555515646128941   0.875000000000000   1.0000000
B2   B   0.111097336562265   0.055502087049599   0.875000000000000   1.0000000
B2   B   0.611069557279878   0.555472447893085   0.875000000000000   1.0000000
B2   B   0.444423344865326   0.055529830854086   0.875000000000000   1.0000000
B2   B   0.944394304700721   0.555515646128941   0.875000000000000   1.0000000
B2   B   0.111033462599713   0.555400258532755   0.375000000000000   1.0000000
B2   B   0.777739871062953   0.055496160418938   0.875000000000000   1.0000000
B2   B   0.278344467973695   0.055905086968842   0.375000000000000   1.0000000
B2   B   0.445380297846393   0.554269837865386   0.375000000000000   1.0000000
B2   B   0.775556206685656   0.554269837865386   0.375000000000000   1.0000000
B2   B   0.610880725429109   0.055873927959585   0.375000000000000   1.0000000
B2   B   0.444443613209217   0.555482998874906   0.875000000000000   1.0000000
B2   B   0.944467889327302   0.055434780094887   0.375000000000000   1.0000000
B2   B   0.277772655915936   0.722188912821140   0.875000000000000   1.0000000
B2   B   0.111118203040510   0.222180771470457   0.875000000000000   1.0000000
B2   B   0.444436990865582   0.222207315064499   0.875000000000000   1.0000000
B2   B   0.611071084902324   0.722118459498724   0.875000000000000   1.0000000
B2   B   0.944390297844889   0.722151009490465   0.875000000000000   1.0000000
B2   B   0.777729235096618   0.222180771470457   0.875000000000000   1.0000000
B2   B   0.110932753841342   0.721974326148950   0.375000000000000   1.0000000
B2   B   0.444388276433862   0.721485707580509   0.375000000000000   1.0000000
B2   B   0.278184332096368   0.222644508657356   0.375000000000000   1.0000000
B2   B   0.777845420677680   0.721961751374530   0.375000000000000   1.0000000
B2   B   0.611126843227660   0.222644508657356   0.375000000000000   1.0000000
B2   B   0.944437061777267   0.222207456887869   0.375000000000000   1.0000000
B2   B   0.111115746078190   0.388862296165931   0.875000000000000   1.0000000
B2   B   0.277765916803497   0.888865166940322   0.875000000000000   1.0000000
B2   B   0.611074896741388   0.888810045501179   0.875000000000000   1.0000000
B2   B   0.444460382013581   0.388858637306855   0.875000000000000   1.0000000
B2   B   0.944401815426462   0.888810045501179   0.875000000000000   1.0000000
B2   B   0.111190889242838   0.888774414354495   0.375000000000000   1.0000000
B2   B   0.777708680939111   0.388847705371136   0.875000000000000   1.0000000
B2   B   0.444250191778328   0.888774414354495   0.375000000000000   1.0000000
B2   B   0.279015711260070   0.388579897626965   0.375000000000000   1.0000000
B2   B   0.278110533099470   0.555318522352395   0.375000000000000   1.0000000
B2   B   0.777605614537790   0.888544562408908   0.375000000000000   1.0000000
B2   B   0.943976709573138   0.388900615688921   0.375000000000000   1.0000000
B2   B   0.111098100210972   0.555529533755272   0.875000000000000   1.0000000
B2   B   0.277773152655424   0.055529830854086   0.875000000000000   1.0000000
B2   B   0.777706052332353   0.555482998874906   0.875000000000000   1.0000000
B2   B   0.611071417154005   0.055502087049599   0.875000000000000   1.0000000
B2   B   0.944422956022650   0.055496160418938   0.875000000000000   1.0000000
B2   B   0.055596555437216   0.111204794450368   0.125057724417270   1.0000000
B2   B   0.555769872886924   0.611237265549623   0.125200172004544   1.0000000
B2   B   0.389024244350405   0.111381822034152   0.125227037072806   1.0000000
B2   B   0.888738432478159   0.611123762605912   0.125145245124922   1.0000000
B2   B   0.722274905679816   0.111204794450368   0.125057724417270   1.0000000
B2   B   0.055508564443107   0.777821153901458   0.624927675156079   1.0000000
B2   B   0.388979256125015   0.777821153901458   0.624927675156079   1.0000000
B2   B   0.222329602831922   0.277886772509828   0.624915971136620   1.0000000
B2   B   0.722291258456858   0.777915850247051   0.624829127415710   1.0000000
B2   B   0.555692687541043   0.278117151461734   0.624816242599438   1.0000000
B2   B   0.888903105247777   0.277839922265990   0.624940516093770   1.0000000
B2   B   0.222258886968296   0.777851107269929   0.125074960479162   1.0000000
B2   B   0.055603483684876   0.277839922265990   0.125059483906230   1.0000000
B2   B   0.389091130587355   0.278117151461734   0.125183757400562   1.0000000
B2   B   0.555696709662372   0.777854727658527   0.125129681356273   1.0000000
B2   B   0.888824684662820   0.777854727658527   0.125129681356273   1.0000000
B2   B   0.722223836344571   0.277886772509828   0.125084028863381   1.0000000
B2   B   0.055563589435655   0.944538428747947   0.624927389488620   1.0000000
B2   B   0.388968526517187   0.944586122274602   0.624904106120562   1.0000000
B2   B   0.222335428310769   0.444485011340405   0.624896380602051   1.0000000
B2   B   0.555700036782548   0.444733406898425   0.623541169118953   1.0000000
B2   B   0.722304376061566   0.944551269255274   0.624915362967318   1.0000000
B2   B   0.888816249696300   0.444485011340405   0.624896380602051   1.0000000
B2   B   0.055578484805759   0.444490302944847   0.125066848127995   1.0000000
B2   B   0.222284262424079   0.944586122274602   0.125095893879438   1.0000000
B2   B   0.555641505978962   0.944538428747947   0.125072610511380   1.0000000
B2   B   0.389112353345474   0.444535222341826   0.125323847497931   1.0000000
B2   B   0.888913559860372   0.944551269255274   0.125084637032682   1.0000000
B2   B   0.722089535663016   0.444535222341826   0.125323847497931   1.0000000
B2   B   0.222290020476969   0.611142139032976   0.624933113287978   1.0000000
B2   B   0.055596555437216   0.111204794450368   0.624942275582730   1.0000000
B2   B   0.555769872886924   0.611237265549623   0.624799827995456   1.0000000
B2   B   0.389024244350405   0.111381822034152   0.624772962927194   1.0000000
B2   B   0.888738432478159   0.611123762605912   0.624854754875078   1.0000000
B2   B   0.055518785222671   0.611142139032976   0.125066886712022   1.0000000
B2   B   0.722274905679816   0.111204794450368   0.624942275582730   1.0000000
B2   B   0.222324178471308   0.111297066339227   0.125130385961673   1.0000000
B2   B   0.389051996794410   0.611123762605912   0.125145245124922   1.0000000
B2   B   0.722134059329364   0.611237265549623   0.125200172004544   1.0000000
B2   B   0.555639554534584   0.111297066339227   0.125130385961673   1.0000000
B2   B   0.389051996794410   0.611123762605912   0.624854754875078   1.0000000
B2   B   0.888934280121897   0.111201893577138   0.125063386366838   1.0000000
B2   B   0.222258886968296   0.777851107269929   0.624925039520838   1.0000000
B2   B   0.055603483684876   0.277839922265990   0.624940516093770   1.0000000
B2   B   0.389091130587355   0.278117151461734   0.624816242599438   1.0000000
B2   B   0.555696709662372   0.777854727658527   0.624870318643727   1.0000000
B2   B   0.888824684662820   0.777854727658527   0.624870318643727   1.0000000
B2   B   0.722223836344571   0.277886772509828   0.624915971136620   1.0000000
B2   B   0.055508564443107   0.777821153901458   0.125072324843921   1.0000000
B2   B   0.388979256125015   0.777821153901458   0.125072324843921   1.0000000
B2   B   0.222329602831922   0.277886772509828   0.125084028863381   1.0000000
B2   B   0.722291258456858   0.777915850247051   0.125170872584289   1.0000000
B2   B   0.555692687541043   0.278117151461734   0.125183757400562   1.0000000
B2   B   0.888903105247777   0.277839922265990   0.125059483906230   1.0000000
B2   B   0.055578484805759   0.444490302944847   0.624933151872005   1.0000000
B2   B   0.222284262424079   0.944586122274602   0.624904106120562   1.0000000
B2   B   0.555641505978962   0.944538428747947   0.624927389488620   1.0000000
B2   B   0.389112353345474   0.444535222341826   0.624676152502069   1.0000000
B2   B   0.888913559860372   0.944551269255274   0.624915362967318   1.0000000
B2   B   0.055563589435655   0.944538428747947   0.125072610511380   1.0000000
B2   B   0.722089535663016   0.444535222341826   0.624676152502069   1.0000000
B2   B   0.388968526517187   0.944586122274602   0.125095893879438   1.0000000
B2   B   0.222335428310769   0.444485011340405   0.125103619397949   1.0000000
B2   B   0.222290020476969   0.611142139032976   0.125066886712022   1.0000000
B2   B   0.555700036782548   0.444733406898425   0.126458830881047   1.0000000
B2   B   0.722304376061566   0.944551269255274   0.125084637032682   1.0000000
B2   B   0.888816249696300   0.444485011340405   0.125103619397949   1.0000000
B2   B   0.055518785222671   0.611142139032976   0.624933113287978   1.0000000
B2   B   0.222324178471308   0.111297066339227   0.624869614038327   1.0000000
B2   B   0.722134059329364   0.611237265549623   0.624799827995456   1.0000000
B2   B   0.555639554534584   0.111297066339227   0.624869614038327   1.0000000
B2   B   0.888934280121897   0.111201893577138   0.624936613633162   1.0000000


