data_1
_audit_creation_method   'vasp2cif'
_cell_length_a    17.52789999999977
_cell_length_b    17.52789999999977
_cell_length_c    15.0
_cell_angle_alpha    90.0
_cell_angle_beta    90.0
_cell_angle_gamma    119.99999999999916

_symmetry_space_group_name_H-M    'P 1'
loop_
_atom_site_label
_atom_site_type_symbol
_atom_site_fract_x
_atom_site_fract_y
_atom_site_fract_z
_atom_site_occupancy
Al2   Al   0.493534259320866   0.506467142596131   0.111087899647658   1.0000000
B2   B   0.905883113801643   0.952995148713844   0.111007484783640   1.0000000
B2   B   0.904699440931933   0.095302580264063   0.111036363520931   1.0000000
B2   B   0.904296926691676   0.238042579659825   0.111047037174311   1.0000000
B2   B   0.904331915102160   0.380849412436228   0.110997514406770   1.0000000
B2   B   0.904937190391968   0.523642235859717   0.111013018190319   1.0000000
B2   B   0.906050264815197   0.666737143751730   0.111068047409879   1.0000000
B2   B   0.906857846424483   0.810504757239744   0.111030957746585   1.0000000
B2   B   0.048221165550592   0.951780855645413   0.110998248924253   1.0000000
B2   B   0.047006872482160   0.094118907394353   0.111007484783640   1.0000000
B2   B   0.046662248772358   0.237197363178520   0.110995515997740   1.0000000
B2   B   0.046999633559646   0.380295237810525   0.111011693692671   1.0000000
B2   B   0.047906760920390   0.523182494462147   0.111003709838918   1.0000000
B2   B   0.048639298148663   0.666040036954011   0.111055225316711   1.0000000
B2   B   0.048726800099374   0.809013385405810   0.111045387956280   1.0000000
B2   B   0.190988635790193   0.951275221096630   0.111045387956280   1.0000000
B2   B   0.189497263956258   0.093144174771514   0.111030957746585   1.0000000
B2   B   0.187978667256929   0.235118417993158   0.110989241018361   1.0000000
B2   B   0.189028863673801   0.379208036546064   0.110992119033790   1.0000000
B2   B   0.190804286900895   0.522482095149277   0.111044758317755   1.0000000
B2   B   0.191739964403731   0.665518493498222   0.111031285140534   1.0000000
B2   B   0.191502257671871   0.808499763524133   0.111008188802187   1.0000000
B2   B   0.333961984242987   0.951362723047341   0.111055225316711   1.0000000
B2   B   0.333264877445268   0.093951756380800   0.111068047409879   1.0000000
B2   B   0.330467368053589   0.234345090404808   0.110998787614251   1.0000000
B2   B   0.328368490369211   0.376171756761886   0.111012106541994   1.0000000
B2   B   0.333855064407408   0.520461130980929   0.111105684367813   1.0000000
B2   B   0.335248639508090   0.664753381688908   0.111074894780567   1.0000000
B2   B   0.334483527698776   0.808262056792273   0.111031285140534   1.0000000
B2   B   0.476819526734852   0.952095260275614   0.111003709838918   1.0000000
B2   B   0.476359785337280   0.095064830804029   0.111013018190319   1.0000000
B2   B   0.475695783390034   0.237954093513458   0.111040847012165   1.0000000
B2   B   0.470978543884005   0.376970361412450   0.111103459340866   1.0000000
B2   B   0.479540890216070   0.666146956789590   0.111105684367813   1.0000000
B2   B   0.477519926047722   0.809197734295108   0.111044758317755   1.0000000
B2   B   0.619706783385479   0.953002387636357   0.111011693692671   1.0000000
B2   B   0.619152608759776   0.095670106093837   0.110997514406770   1.0000000
B2   B   0.618786149673301   0.238726852759737   0.111005642809517   1.0000000
B2   B   0.617978989955326   0.382023031240677   0.111026059126956   1.0000000
B2   B   0.623031659783553   0.529023477312993   0.111103459340866   1.0000000
B2   B   0.623830264434118   0.671633530827788   0.111012106541994   1.0000000
B2   B   0.620793984649940   0.810973157522202   0.110992119033790   1.0000000
B2   B   0.762804658017484   0.953339772423647   0.110995515997740   1.0000000
B2   B   0.761959441536179   0.095705094504320   0.111047037174311   1.0000000
B2   B   0.761575641165133   0.238426380030872   0.111041829314926   1.0000000
B2   B   0.761275168436266   0.381215871522703   0.111005642809517   1.0000000
B2   B   0.762047927682546   0.524306237806965   0.111040847012165   1.0000000
B2   B   0.765656930791195   0.669534653143409   0.110998787614251   1.0000000
B2   B   0.764883603202845   0.812023353939074   0.110989241018361   1.0000000
N2   N   0.953683226993773   0.905366829253184   0.110984923320752   1.0000000
N2   N   0.952345912909149   0.047655489008856   0.111005109923518   1.0000000
N2   N   0.951632824038654   0.190200778269881   0.111013172282705   1.0000000
N2   N   0.951731462796474   0.333068528188155   0.111000692367061   1.0000000
N2   N   0.952534361632685   0.475963286603360   0.110971320623882   1.0000000
N2   N   0.953535096553985   0.618883308346309   0.111050644502917   1.0000000
N2   N   0.953969295885529   0.762126224262369   0.111041762356970   1.0000000
N2   N   0.095946096544574   0.904055305373424   0.111004085352352   1.0000000
N2   N   0.094634572664813   0.046318174924233   0.110984923320752   1.0000000
N2   N   0.093201766217777   0.188536232978026   0.110979524243662   1.0000000
N2   N   0.093669504469292   0.332095956916412   0.110970529844764   1.0000000
N2   N   0.095091914265605   0.475414014038710   0.110996269334616   1.0000000
N2   N   0.096192310944505   0.618397539271231   0.111019540208236   1.0000000
N2   N   0.096335439143000   0.761264017909174   0.111017049710799   1.0000000
N2   N   0.238737384008831   0.903665962774998   0.111017049710799   1.0000000
N2   N   0.237875177655636   0.046032106032477   0.111041762356970   1.0000000
N2   N   0.235368521387903   0.187107441992072   0.110980857137063   1.0000000
N2   N   0.233557075088950   0.329031774183744   0.110970509955183   1.0000000
N2   N   0.237201693224654   0.474409119086426   0.111036263709684   1.0000000
N2   N   0.239172707170811   0.617925325079733   0.111030017833986   1.0000000
N2   N   0.239110519508702   0.760890882409303   0.111003087998480   1.0000000
N2   N   0.381603862646768   0.903809090973494   0.111019540208236   1.0000000
N2   N   0.381118093571690   0.046466305364021   0.111050644502917   1.0000000
N2   N   0.380055639471416   0.188404049989825   0.111020302459822   1.0000000
N2   N   0.375431520647045   0.327295887171887   0.110989006743238   1.0000000
N2   N   0.375363641881098   0.468951955115832   0.111046698785358   1.0000000
N2   N   0.382690006257664   0.617311395660335   0.111108948779579   1.0000000
N2   N   0.382076076838266   0.760828694747195   0.111030017833986   1.0000000
N2   N   0.524587387878285   0.904909487652394   0.110996269334616   1.0000000
N2   N   0.524038115313637   0.047467040285322   0.110971320623882   1.0000000
N2   N   0.523585546053928   0.190174462964924   0.111000174830062   1.0000000
N2   N   0.522611639873053   0.332899051563753   0.111035026802456   1.0000000
N2   N   0.531049446801165   0.624637760036901   0.111046698785358   1.0000000
N2   N   0.525592282830570   0.762799708693353   0.111036263709684   1.0000000
N2   N   0.667905445000585   0.906331897448707   0.110970529844764   1.0000000
N2   N   0.666932873728841   0.048269939121532   0.111000692367061   1.0000000
N2   N   0.666500430765807   0.190862142446243   0.111004348037986   1.0000000
N2   N   0.666154163248627   0.333847238668370   0.110977766653516   1.0000000
N2   N   0.667102350353244   0.477389762043944   0.111035026802456   1.0000000
N2   N   0.672705514745110   0.624569881270953   0.110989006743238   1.0000000
N2   N   0.670969627733253   0.766444326829056   0.110970509955183   1.0000000
N2   N   0.811465168939974   0.906799635700221   0.110979524243662   1.0000000
N2   N   0.809800623648118   0.048368577879352   0.111013172282705   1.0000000
N2   N   0.809226926823435   0.190774475094563   0.111047045892919   1.0000000
N2   N   0.809139259471756   0.333500971151190   0.111004348037986   1.0000000
N2   N   0.809826938953075   0.476415855863070   0.111000174830062   1.0000000
N2   N   0.811597351928172   0.619945762446583   0.111020302459822   1.0000000
N2   N   0.812893959925925   0.764632880530104   0.110980857137063   1.0000000


