data_1
_audit_creation_method   'vasp2cif'
_cell_length_a    14.93631414619966
_cell_length_b    14.936314146199727
_cell_length_c    13.341276283792837
_cell_angle_alpha    90.0
_cell_angle_beta    90.0
_cell_angle_gamma    119.99999999999984

_symmetry_space_group_name_H-M    'P 1'
loop_
_atom_site_label
_atom_site_type_symbol
_atom_site_fract_x
_atom_site_fract_y
_atom_site_fract_z
_atom_site_occupancy
O2   O   0.430244206048306   0.381788769690817   0.375000000000000   1.0000000
N2   N   0.111078717841439   0.055551655580130   0.125095092016562   1.0000000
N2   N   0.611140531558274   0.555676459597772   0.123843144319772   1.0000000
N2   N   0.444409797463057   0.055566676557832   0.125071066454970   1.0000000
N2   N   0.944415199121552   0.555538391523055   0.125011169749425   1.0000000
N2   N   0.777756304337358   0.055544818835350   0.125024164367742   1.0000000
N2   N   0.111074284114185   0.722203808723757   0.624987778996979   1.0000000
N2   N   0.444409797463057   0.722176454238561   0.624928933545030   1.0000000
N2   N   0.277762691077091   0.222237172007098   0.624479653723175   1.0000000
N2   N   0.777790427354934   0.722253548808560   0.625094374665561   1.0000000
N2   N   0.611118190025812   0.222218044486432   0.625059763946834   1.0000000
N2   N   0.944423856538992   0.222205586718219   0.624968279602848   1.0000000
N2   N   0.277738835247976   0.722191699877130   0.125040780115293   1.0000000
N2   N   0.111079373315429   0.222206353324382   0.125161549968594   1.0000000
N2   N   0.444402889393134   0.222238145550072   0.125238159536413   1.0000000
N2   N   0.611118190025812   0.722233478872702   0.124940236053166   1.0000000
N2   N   0.944415199121552   0.722210140931840   0.125011169749425   1.0000000
N2   N   0.777777132475328   0.222205915045409   0.125011701706135   1.0000000
N2   N   0.111073538769399   0.888878793206755   0.624957240433146   1.0000000
N2   N   0.444402614651432   0.888867973992376   0.624975996621865   1.0000000
N2   N   0.277762691077091   0.388858852403321   0.624479653723175   1.0000000
N2   N   0.611140531558274   0.388797405293832   0.626156855680228   1.0000000
N2   N   0.777777132475328   0.888904550763255   0.624988298293865   1.0000000
N2   N   0.944431310265913   0.388867399354992   0.624977238646516   1.0000000
N2   N   0.111078717841439   0.388860395594637   0.125095092016562   1.0000000
N2   N   0.277738835247976   0.888880468704175   0.125040780115293   1.0000000
N2   N   0.611077998585295   0.888866618154742   0.125067429469705   1.0000000
N2   N   0.444456214287855   0.388894773810592   0.126311101497018   1.0000000
N2   N   0.944431310265913   0.888897244244249   0.125022761353484   1.0000000
N2   N   0.777790427354934   0.388870211879704   0.124905625334439   1.0000000
N2   N   0.277737244278237   0.555510716690137   0.624814713517025   1.0000000
N2   N   0.111078717841439   0.055551655580130   0.624904907983439   1.0000000
N2   N   0.611140531558274   0.555676459597772   0.626156855680228   1.0000000
N2   N   0.444409797463057   0.055566676557832   0.624928933545030   1.0000000
N2   N   0.944415199121552   0.555538391523055   0.624988830250575   1.0000000
N2   N   0.111073538769399   0.555528078895965   0.125042759566854   1.0000000
N2   N   0.777756304337358   0.055544818835350   0.624975835632259   1.0000000
N2   N   0.277737244278237   0.055559860921436   0.125185286482975   1.0000000
N2   N   0.444402889393134   0.555498077176397   0.125238159536413   1.0000000
N2   N   0.777751633338702   0.555542483336019   0.124871392062480   1.0000000
N2   N   0.611077998585295   0.055544713763880   0.125067429469705   1.0000000
N2   N   0.444402889393134   0.555498077176397   0.624761840463586   1.0000000
N2   N   0.944423856538992   0.055551603154109   0.125031720397152   1.0000000
N2   N   0.277738835247976   0.722191699877130   0.624959219884707   1.0000000
N2   N   0.111079373315429   0.222206353324382   0.624838450031406   1.0000000
N2   N   0.444402889393134   0.222238145550072   0.624761840463586   1.0000000
N2   N   0.611118190025812   0.722233478872702   0.625059763946834   1.0000000
N2   N   0.944415199121552   0.722210140931840   0.624988830250575   1.0000000
N2   N   0.777777132475328   0.222205915045409   0.624988298293865   1.0000000
N2   N   0.111074284114185   0.722203808723757   0.125012221003027   1.0000000
N2   N   0.444409797463057   0.722176454238561   0.125071066454970   1.0000000
N2   N   0.277762691077091   0.222237172007098   0.125520346276825   1.0000000
N2   N   0.777790427354934   0.722253548808560   0.124905625334439   1.0000000
N2   N   0.611118190025812   0.222218044486432   0.124940236053166   1.0000000
N2   N   0.944423856538992   0.222205586718219   0.125031720397152   1.0000000
N2   N   0.111078717841439   0.388860395594637   0.624904907983439   1.0000000
N2   N   0.277738835247976   0.888880468704175   0.624959219884707   1.0000000
N2   N   0.611077998585295   0.888866618154742   0.624932570530295   1.0000000
N2   N   0.444456214287855   0.388894773810592   0.623688898502982   1.0000000
N2   N   0.944431310265913   0.888897244244249   0.624977238646516   1.0000000
N2   N   0.111073538769399   0.888878793206755   0.125042759566854   1.0000000
N2   N   0.777790427354934   0.388870211879704   0.625094374665561   1.0000000
N2   N   0.444402614651432   0.888867973992376   0.125024003378135   1.0000000
N2   N   0.277762691077091   0.388858852403321   0.125520346276825   1.0000000
N2   N   0.277737244278237   0.555510716690137   0.125185286482975   1.0000000
N2   N   0.611140531558274   0.388797405293832   0.123843144319772   1.0000000
N2   N   0.777777132475328   0.888904550763255   0.125011701706135   1.0000000
N2   N   0.944431310265913   0.388867399354992   0.125022761353484   1.0000000
N2   N   0.111073538769399   0.555528078895965   0.624957240433146   1.0000000
N2   N   0.277737244278237   0.055559860921436   0.624814713517025   1.0000000
N2   N   0.777751633338702   0.555542483336019   0.625128607937520   1.0000000
N2   N   0.611077998585295   0.055544713763880   0.624932570530295   1.0000000
N2   N   0.944423856538992   0.055551603154109   0.624968279602848   1.0000000
N2   N   0.051453051497045   0.108548491561245   0.375000000000000   1.0000000
N2   N   0.556618379142726   0.597015033008023   0.375000000000000   1.0000000
N2   N   0.390648411439294   0.117967060416358   0.375000000000000   1.0000000
N2   N   0.896760466255773   0.615046899794561   0.375000000000000   1.0000000
N2   N   0.720543257849618   0.111681610542066   0.375000000000000   1.0000000
N2   N   0.055563485249394   0.777783751769540   0.875000000000000   1.0000000
N2   N   0.388890951186948   0.777784037393740   0.875000000000000   1.0000000
N2   N   0.222229289428194   0.277781311380768   0.875000000000000   1.0000000
N2   N   0.722218923887065   0.777779402128894   0.875000000000000   1.0000000
N2   N   0.555544651146285   0.277759754596288   0.875000000000000   1.0000000
N2   N   0.888890634677513   0.277777825734605   0.875000000000000   1.0000000
N2   N   0.226208690561860   0.779771011947597   0.375000000000000   1.0000000
N2   N   0.051453051497045   0.276237893269143   0.375000000000000   1.0000000
N2   N   0.380016517873400   0.278007761269169   0.375000000000000   1.0000000
N2   N   0.556039613958900   0.772103173241725   0.375000000000000   1.0000000
N2   N   0.891208117235893   0.777949015497782   0.375000000000000   1.0000000
N2   N   0.721458631601839   0.281092317615772   0.375000000000000   1.0000000
N2   N   0.055561302536938   0.944449302614733   0.875000000000000   1.0000000
N2   N   0.388890951186948   0.944440247126544   0.875000000000000   1.0000000
N2   N   0.222229810203222   0.444448612391505   0.875000000000000   1.0000000
N2   N   0.555547520150175   0.444440426741748   0.875000000000000   1.0000000
N2   N   0.722216819134222   0.944443678493351   0.875000000000000   1.0000000
N2   N   0.888894010249200   0.444444851358789   0.875000000000000   1.0000000
N2   N   0.055602268143492   0.444666809201250   0.375000000000000   1.0000000
N2   N   0.225208946815872   0.947540082147651   0.375000000000000   1.0000000
N2   N   0.556010883758520   0.944672108545927   0.375000000000000   1.0000000
N2   N   0.380016517873400   0.435342089937574   0.375000000000000   1.0000000
N2   N   0.886681140218243   0.942046934412936   0.375000000000000   1.0000000
N2   N   0.728153037943287   0.450526143087039   0.375000000000000   1.0000000
N2   N   0.222227883714368   0.611115387779886   0.875000000000000   1.0000000
N2   N   0.055559050354830   0.111112741693061   0.875000000000000   1.0000000
N2   N   0.555544651146285   0.611118229883332   0.875000000000000   1.0000000
N2   N   0.388890116240881   0.111102766943341   0.875000000000000   1.0000000
N2   N   0.888896500305300   0.611114916819321   0.875000000000000   1.0000000
N2   N   0.060300121040068   0.613073612134520   0.375000000000000   1.0000000
N2   N   0.722216819134222   0.111106473974207   0.875000000000000   1.0000000
N2   N   0.219820511914709   0.110589797430924   0.375000000000000   1.0000000
N2   N   0.390648411439294   0.606014684356279   0.375000000000000   1.0000000
N2   N   0.728153037943287   0.610960228189584   0.375000000000000   1.0000000
N2   N   0.556039613958900   0.117269774050504   0.375000000000000   1.0000000
N2   N   0.388890116240881   0.611120682630890   0.875000000000000   1.0000000
N2   N   0.885709851593928   0.109521592463636   0.375000000000000   1.0000000
N2   N   0.222228067644319   0.777780700488824   0.875000000000000   1.0000000
N2   N   0.055559050354830   0.277779641995105   0.875000000000000   1.0000000
N2   N   0.388895267240081   0.277779637795761   0.875000000000000   1.0000000
N2   N   0.555549371180034   0.777782580172965   0.875000000000000   1.0000000
N2   N   0.888894010249200   0.777782492223746   0.875000000000000   1.0000000
N2   N   0.722218923887065   0.277772855091506   0.875000000000000   1.0000000
N2   N   0.060300121040068   0.780559842238883   0.375000000000000   1.0000000
N2   N   0.391402059237866   0.777069283363677   0.375000000000000   1.0000000
N2   N   0.214714328560038   0.274023830946683   0.375000000000000   1.0000000
N2   N   0.721458631601839   0.773699647319403   0.375000000000000   1.0000000
N2   N   0.556618379142726   0.292936679468045   0.375000000000000   1.0000000
N2   N   0.886681140218243   0.277967539138649   0.375000000000000   1.0000000
N2   N   0.055561302536938   0.444445333255533   0.875000000000000   1.0000000
N2   N   0.222227883714368   0.944445829267810   0.875000000000000   1.0000000
N2   N   0.555551294251436   0.944442313792385   0.875000000000000   1.0000000
N2   N   0.388895267240081   0.444448962777656   0.875000000000000   1.0000000
N2   N   0.888890634677513   0.944446142276243   0.875000000000000   1.0000000
N2   N   0.055602268143492   0.944268792275570   0.375000000000000   1.0000000
N2   N   0.722223257979500   0.444443833555268   0.875000000000000   1.0000000
N2   N   0.391402059237866   0.947666109207524   0.375000000000000   1.0000000
N2   N   0.219820511914709   0.442564047817120   0.375000000000000   1.0000000
N2   N   0.225208946815872   0.611002198001549   0.375000000000000   1.0000000
N2   N   0.720543257849618   0.942194980640889   0.375000000000000   1.0000000
N2   N   0.891208117235893   0.446592435071454   0.375000000000000   1.0000000
N2   N   0.055563485249394   0.611113066813190   0.875000000000000   1.0000000
N2   N   0.222229810203222   0.111114531145053   0.875000000000000   1.0000000
N2   N   0.722223257979500   0.611112757757561   0.875000000000000   1.0000000
N2   N   0.555549371180034   0.111100124340397   0.875000000000000   1.0000000
N2   N   0.888888813769422   0.111111073551382   0.875000000000000   1.0000000
B2   B   0.108277610062101   0.054096744082796   0.375000000000000   1.0000000
B2   B   0.617485253549529   0.535348041861091   0.375000000000000   1.0000000
B2   B   0.445762164680218   0.060133891099201   0.375000000000000   1.0000000
B2   B   0.949269540518234   0.557712656717648   0.375000000000000   1.0000000
B2   B   0.774628813005323   0.053981073169329   0.375000000000000   1.0000000
B2   B   0.111092277698594   0.722212805515961   0.875000000000000   1.0000000
B2   B   0.444471058087530   0.722246202109096   0.875000000000000   1.0000000
B2   B   0.277822267457052   0.222230763956181   0.875000000000000   1.0000000
B2   B   0.777750792815458   0.722174814459244   0.875000000000000   1.0000000
B2   B   0.611121718035086   0.222245996033177   0.875000000000000   1.0000000
B2   B   0.944404998093175   0.222216778178770   0.875000000000000   1.0000000
B2   B   0.280642245215477   0.722716632412449   0.375000000000000   1.0000000
B2   B   0.103629212687824   0.218481273010580   0.375000000000000   1.0000000
B2   B   0.448158890826136   0.230516472341506   0.375000000000000   1.0000000
B2   B   0.610439713197126   0.712164361378909   0.375000000000000   1.0000000
B2   B   0.949269540518234   0.724890217133921   0.375000000000000   1.0000000
B2   B   0.775211401922782   0.223480227327581   0.375000000000000   1.0000000
B2   B   0.111095190912559   0.888860202283564   0.875000000000000   1.0000000
B2   B   0.444456693211820   0.888895013272574   0.875000000000000   1.0000000
B2   B   0.277822267457052   0.388924836834199   0.875000000000000   1.0000000
B2   B   0.611137259516598   0.388918869334967   0.875000000000000   1.0000000
B2   B   0.777750169034906   0.888849433861949   0.875000000000000   1.0000000
B2   B   0.944408100899756   0.388899895458463   0.875000000000000   1.0000000
B2   B   0.108277610062101   0.387514199312633   0.375000000000000   1.0000000
B2   B   0.280642245215477   0.891258946136348   0.375000000000000   1.0000000
B2   B   0.609936612055364   0.885500127944579   0.375000000000000   1.0000000
B2   B   0.944111392123327   0.887932613772544   0.375000000000000   1.0000000
B2   B   0.779390417499521   0.392752878334149   0.375000000000000   1.0000000
B2   B   0.277802978216264   0.555592723597130   0.875000000000000   1.0000000
B2   B   0.111097102011869   0.055526011654024   0.875000000000000   1.0000000
B2   B   0.611137259516598   0.555551723514960   0.875000000000000   1.0000000
B2   B   0.444471058087530   0.055558189311770   0.875000000000000   1.0000000
B2   B   0.944408532754384   0.555552811992692   0.875000000000000   1.0000000
B2   B   0.113771288153671   0.556137104684792   0.375000000000000   1.0000000
B2   B   0.777747752660853   0.055540542997094   0.875000000000000   1.0000000
B2   B   0.279197076452864   0.058424535813928   0.375000000000000   1.0000000
B2   B   0.448158890826136   0.550975751817966   0.375000000000000   1.0000000
B2   B   0.786755156866343   0.560044245099840   0.375000000000000   1.0000000
B2   B   0.609936612055364   0.057769817444121   0.375000000000000   1.0000000
B2   B   0.444512243637089   0.555601857456178   0.875000000000000   1.0000000
B2   B   0.940180833965475   0.052698897755860   0.375000000000000   1.0000000
B2   B   0.277787916186450   0.722238572951644   0.875000000000000   1.0000000
B2   B   0.111094580479490   0.222213956906406   0.875000000000000   1.0000000
B2   B   0.444512243637089   0.222243719514247   0.875000000000000   1.0000000
B2   B   0.611121718035086   0.722209055335237   0.875000000000000   1.0000000
B2   B   0.944408532754384   0.722189054095028   0.875000000000000   1.0000000
B2   B   0.777750169034906   0.222234068506286   0.875000000000000   1.0000000
B2   B   0.115160454812230   0.724246894072779   0.375000000000000   1.0000000
B2   B   0.445762164680218   0.718961606914353   0.375000000000000   1.0000000
B2   B   0.268824371149327   0.219215670404870   0.375000000000000   1.0000000
B2   B   0.779390417499521   0.719970872498701   0.375000000000000   1.0000000
B2   B   0.610439713197126   0.231608685151539   0.375000000000000   1.0000000
B2   B   0.940180833965475   0.220815269542943   0.375000000000000   1.0000000
B2   B   0.111097102011869   0.388904423691174   0.875000000000000   1.0000000
B2   B   0.277787916186450   0.888882676568135   0.875000000000000   1.0000000
B2   B   0.611108622432658   0.888881817160132   0.875000000000000   1.0000000
B2   B   0.444548318681547   0.388940826007438   0.875000000000000   1.0000000
B2   B   0.944408100899756   0.888841538774622   0.875000000000000   1.0000000
B2   B   0.113771288153671   0.890967516802207   0.375000000000000   1.0000000
B2   B   0.777750792815458   0.388909311689543   0.875000000000000   1.0000000
B2   B   0.445625556795900   0.889479445064615   0.375000000000000   1.0000000
B2   B   0.268824371149327   0.382942034077785   0.375000000000000   1.0000000
B2   B   0.279197076452864   0.554105873972271   0.375000000000000   1.0000000
B2   B   0.617485253549529   0.415470545021765   0.375000000000000   1.0000000
B2   B   0.775211401922782   0.885064507928531   0.375000000000000   1.0000000
B2   B   0.944111392123327   0.389512111684112   0.375000000000000   1.0000000
B2   B   0.111095190912559   0.555568321962323   0.875000000000000   1.0000000
B2   B   0.277802978216264   0.055543587952469   0.875000000000000   1.0000000
B2   B   0.777750488546645   0.555541910939993   0.875000000000000   1.0000000
B2   B   0.611108622432658   0.055560138605854   0.875000000000000   1.0000000
B2   B   0.944404998093175   0.055521553247741   0.875000000000000   1.0000000
B2   B   0.055422599054754   0.111002187575953   0.124916600051502   1.0000000
B2   B   0.555800088513449   0.611079152933416   0.124889141269759   1.0000000
B2   B   0.388939396517151   0.111166086781032   0.124998476791348   1.0000000
B2   B   0.888684859676416   0.611009096504879   0.125181579181727   1.0000000
B2   B   0.722207474737276   0.111142829621894   0.125025381005866   1.0000000
B2   B   0.055393717420498   0.777666356439530   0.624970984643830   1.0000000
B2   B   0.388878362001704   0.777759308659984   0.625000824723119   1.0000000
B2   B   0.222139817848645   0.277736575590991   0.625132331948366   1.0000000
B2   B   0.722239875285706   0.777695164433503   0.624938739613074   1.0000000
B2   B   0.555800088513449   0.278054268913361   0.625110858730248   1.0000000
B2   B   0.888805233749860   0.277790413906840   0.624992825744618   1.0000000
B2   B   0.222127373760547   0.777730353546944   0.124986613239105   1.0000000
B2   B   0.055422599054754   0.277753744812136   0.124916600051502   1.0000000
B2   B   0.389091915138530   0.277922595025475   0.125126782189631   1.0000000
B2   B   0.555625093883994   0.777732609447621   0.125049674164401   1.0000000
B2   B   0.888761659218884   0.777657047301563   0.125107453758508   1.0000000
B2   B   0.722239875285706   0.277878044185539   0.125061260386926   1.0000000
B2   B   0.055423214963194   0.944314368980316   0.625017825444844   1.0000000
B2   B   0.388878362001704   0.944452386675056   0.625000824723119   1.0000000
B2   B   0.222144990957597   0.444468079428413   0.625052414598595   1.0000000
B2   B   0.555995573001828   0.444664453167582   0.623653462603624   1.0000000
B2   B   0.722207474737276   0.944397978448718   0.624974618994134   1.0000000
B2   B   0.888761659218884   0.444437945250656   0.624892546241492   1.0000000
B2   B   0.055423214963194   0.444442179316207   0.124982174555156   1.0000000
B2   B   0.222132186757688   0.944359211779856   0.124993322589469   1.0000000
B2   B   0.555562580721073   0.944447957027198   0.125030096498281   1.0000000
B2   B   0.389091915138530   0.444502653446397   0.125126782189631   1.0000000
B2   B   0.888805233749860   0.944348153176350   0.125007174255383   1.0000000
B2   B   0.722155903110318   0.444462914870452   0.125109241247061   1.0000000
B2   B   0.222132186757688   0.611106308311167   0.625006677410531   1.0000000
B2   B   0.055422599054754   0.111002187575953   0.625083399948499   1.0000000
B2   B   0.555800088513449   0.611079152933416   0.625110858730248   1.0000000
B2   B   0.388939396517151   0.111166086781032   0.625001523208652   1.0000000
B2   B   0.888684859676416   0.611009096504879   0.624818420818273   1.0000000
B2   B   0.055393717420498   0.611060694314303   0.125029015356170   1.0000000
B2   B   0.722207474737276   0.111142829621894   0.624974618994134   1.0000000
B2   B   0.222144990957597   0.111010244862520   0.124947585401405   1.0000000
B2   B   0.388939396517151   0.611106643069462   0.124998476791348   1.0000000
B2   B   0.722155903110318   0.611026321573201   0.125109241247061   1.0000000
B2   B   0.555625093883994   0.111225817769709   0.125049674164401   1.0000000
B2   B   0.388939396517151   0.611106643069462   0.625001523208652   1.0000000
B2   B   0.888804479313045   0.111068906323194   0.124967987403145   1.0000000
B2   B   0.222127373760547   0.777730353546944   0.625013386760895   1.0000000
B2   B   0.055422599054754   0.277753744812136   0.625083399948499   1.0000000
B2   B   0.389091915138530   0.277922595025475   0.624873217810369   1.0000000
B2   B   0.555625093883994   0.777732609447621   0.624950325835599   1.0000000
B2   B   0.888761659218884   0.777657047301563   0.624892546241492   1.0000000
B2   B   0.722239875285706   0.277878044185539   0.624938739613074   1.0000000
B2   B   0.055393717420498   0.777666356439530   0.125029015356170   1.0000000
B2   B   0.388878362001704   0.777759308659984   0.124999175276881   1.0000000
B2   B   0.222139817848645   0.277736575590991   0.124867668051634   1.0000000
B2   B   0.722239875285706   0.777695164433503   0.125061260386926   1.0000000
B2   B   0.555800088513449   0.278054268913361   0.124889141269759   1.0000000
B2   B   0.888805233749860   0.277790413906840   0.125007174255383   1.0000000
B2   B   0.055423214963194   0.444442179316207   0.625017825444844   1.0000000
B2   B   0.222132186757688   0.944359211779856   0.625006677410531   1.0000000
B2   B   0.555562580721073   0.944447957027198   0.624969903501718   1.0000000
B2   B   0.389091915138530   0.444502653446397   0.624873217810369   1.0000000
B2   B   0.888805233749860   0.944348153176350   0.624992825744618   1.0000000
B2   B   0.055423214963194   0.944314368980316   0.124982174555156   1.0000000
B2   B   0.722155903110318   0.444462914870452   0.624890758752939   1.0000000
B2   B   0.388878362001704   0.944452386675056   0.124999175276881   1.0000000
B2   B   0.222144990957597   0.444468079428413   0.124947585401405   1.0000000
B2   B   0.222132186757688   0.611106308311167   0.124993322589469   1.0000000
B2   B   0.555995573001828   0.444664453167582   0.126346537396376   1.0000000
B2   B   0.722207474737276   0.944397978448718   0.125025381005866   1.0000000
B2   B   0.888761659218884   0.444437945250656   0.125107453758508   1.0000000
B2   B   0.055393717420498   0.611060694314303   0.624970984643830   1.0000000
B2   B   0.222144990957597   0.111010244862520   0.625052414598595   1.0000000
B2   B   0.722155903110318   0.611026321573201   0.624890758752939   1.0000000
B2   B   0.555625093883994   0.111225817769709   0.624950325835599   1.0000000
B2   B   0.888804479313045   0.111068906323194   0.625032012596855   1.0000000


