data_1
_audit_creation_method   'vasp2cif'
_cell_length_a    17.52789999999977
_cell_length_b    17.52789999999977
_cell_length_c    15.0
_cell_angle_alpha    90.0
_cell_angle_beta    90.0
_cell_angle_gamma    119.99999999999916

_symmetry_space_group_name_H-M    'P 1'
loop_
_atom_site_label
_atom_site_type_symbol
_atom_site_fract_x
_atom_site_fract_y
_atom_site_fract_z
_atom_site_occupancy
B2   B   0.905240026443148   0.952720192436389   0.108102791698784   1.0000000
B2   B   0.904730189347045   0.095271557344950   0.105383114859515   1.0000000
B2   B   0.904549695957506   0.238002433339694   0.104856638660630   1.0000000
B2   B   0.904708871179670   0.380873640649977   0.106645817149723   1.0000000
B2   B   0.905219823132825   0.523927033419554   0.109370547287597   1.0000000
B2   B   0.905219277917414   0.666923858768620   0.110756592367417   1.0000000
B2   B   0.905227664938895   0.809761295198872   0.110261932777314   1.0000000
B2   B   0.047737282878648   0.952264440486315   0.107151812694323   1.0000000
B2   B   0.047281522905515   0.094761694029091   0.108102791225782   1.0000000
B2   B   0.046951221694138   0.237617971607393   0.109971767719061   1.0000000
B2   B   0.046924984162682   0.380736106884615   0.110643071168027   1.0000000
B2   B   0.047252387390302   0.523929648846424   0.109392810480194   1.0000000
B2   B   0.047731582495222   0.666919134801139   0.108005592037503   1.0000000
B2   B   0.047781890856599   0.809643563804373   0.107087758852297   1.0000000
B2   B   0.190358185888589   0.952219872236464   0.107087757326299   1.0000000
B2   B   0.190240405837282   0.094774047769195   0.110261928653317   1.0000000
B2   B   0.189022667497069   0.236586587708519   0.115831724621614   1.0000000
B2   B   0.188881422674592   0.380136082215173   0.118657035740670   1.0000000
B2   B   0.189018231900788   0.523860035271151   0.116657272981802   1.0000000
B2   B   0.190243321472961   0.666915090232165   0.111209696847526   1.0000000
B2   B   0.190368096309320   0.809633598231609   0.107438875362761   1.0000000
B2   B   0.333082600903960   0.952270141338640   0.108005594451501   1.0000000
B2   B   0.333077855208258   0.094782462002585   0.110756587990417   1.0000000
B2   B   0.332998099286361   0.237409190194766   0.115200622197615   1.0000000
B2   B   0.329996581182049   0.378201317397414   0.115791503785750   1.0000000
B2   B   0.329993697337391   0.523185106083739   0.116083049208266   1.0000000
B2   B   0.332988007961452   0.667013694812528   0.115866935545267   1.0000000
B2   B   0.333086563087782   0.809758307370144   0.111209700380529   1.0000000
B2   B   0.476072038572662   0.952749193539758   0.109392815791195   1.0000000
B2   B   0.476074708086364   0.094781999543320   0.109370555980597   1.0000000
B2   B   0.476155655325346   0.236598986241464   0.116481539560085   1.0000000
B2   B   0.476828241709497   0.378210747338439   0.115859105619879   1.0000000
B2   B   0.476816678349241   0.670008160002684   0.116083049722272   1.0000000
B2   B   0.476141680518969   0.810983455167167   0.116657278718802   1.0000000
B2   B   0.619265632087326   0.953076700254467   0.110643073275027   1.0000000
B2   B   0.619128029697901   0.095292816102337   0.106645818235724   1.0000000
B2   B   0.619287995526876   0.237620069407708   0.111021751630499   1.0000000
B2   B   0.619860708759159   0.380141025449943   0.119017056125525   1.0000000
B2   B   0.621790821631788   0.523173425493512   0.115859100361879   1.0000000
B2   B   0.621800332057683   0.670005142533836   0.115791503498751   1.0000000
B2   B   0.619865660944848   0.811120346728387   0.118657031392667   1.0000000
B2   B   0.762383768920591   0.953050497832924   0.109971769945056   1.0000000
B2   B   0.761999262421360   0.095451980576363   0.104856641063628   1.0000000
B2   B   0.762009221595959   0.237992483583996   0.105396951538324   1.0000000
B2   B   0.762381752976239   0.380713759904093   0.111021743223499   1.0000000
B2   B   0.763402765934653   0.523846027481676   0.116481531596087   1.0000000
B2   B   0.762592468576345   0.667003581258713   0.115200630825614   1.0000000
B2   B   0.763415083715552   0.810979049184893   0.115831727095610   1.0000000
Si2   Si   0.476182853522889   0.523818802024080   0.066332393061451   1.0000000
N2   N   0.952561509708724   0.904873970055556   0.107948143179039   1.0000000
N2   N   0.952361312209783   0.047640405100223   0.106088780797736   1.0000000
N2   N   0.952128477900738   0.190352211368393   0.105654043122663   1.0000000
N2   N   0.952118444448507   0.333203951493702   0.106450504027869   1.0000000
N2   N   0.952360830580128   0.476152271250219   0.107591570114147   1.0000000
N2   N   0.952573148603511   0.619134527014289   0.108920198084582   1.0000000
N2   N   0.952588588709618   0.762019819913057   0.108727951053764   1.0000000
N2   N   0.095262621950995   0.904739130516955   0.106409889909035   1.0000000
N2   N   0.095127735382367   0.047440209106263   0.107948149676036   1.0000000
N2   N   0.094351890459946   0.189720542064737   0.111201666948698   1.0000000
N2   N   0.094224216300076   0.332816868009279   0.113365839536602   1.0000000
N2   N   0.094334898978762   0.476054654302701   0.112299489096824   1.0000000
N2   N   0.095121704145517   0.619136008985041   0.109082910697856   1.0000000
N2   N   0.095260885112622   0.761975669331265   0.106841231008706   1.0000000
N2   N   0.238026042829741   0.904740825645408   0.106841231900707   1.0000000
N2   N   0.237981909463957   0.047413180254319   0.108727943630767   1.0000000
N2   N   0.237683207372515   0.189941124481889   0.114138804526814   1.0000000
N2   N   0.235595411441052   0.331306877199993   0.120552031960006   1.0000000
N2   N   0.235596627600074   0.475693519703731   0.120944444499950   1.0000000
N2   N   0.237672176779623   0.619186377531037   0.115112790871963   1.0000000
N2   N   0.237973734208833   0.762027899985961   0.109380299221897   1.0000000
N2   N   0.380865662117979   0.904879921637556   0.109082914847859   1.0000000
N2   N   0.380867200172616   0.047428602316598   0.108920205832581   1.0000000
N2   N   0.380827377529941   0.189936497872134   0.114563787040910   1.0000000
N2   N   0.380705363864440   0.332817051483466   0.115210193407291   1.0000000
N2   N   0.372763196025273   0.472097767703828   0.108370874449131   1.0000000
N2   N   0.380695204577562   0.619306593381366   0.115680421004194   1.0000000
N2   N   0.380815360957839   0.762329530100436   0.115112795492964   1.0000000
N2   N   0.523947077925177   0.905666696537308   0.112299502874823   1.0000000
N2   N   0.523849387098894   0.047640831179882   0.107591570559153   1.0000000
N2   N   0.523961745838880   0.189714832665081   0.112346087138264   1.0000000
N2   N   0.524303253735259   0.331319754278169   0.120915530420788   1.0000000
N2   N   0.527918504328931   0.472083092295954   0.108239819824355   1.0000000
N2   N   0.527903891579319   0.627238486113832   0.108370876027132   1.0000000
N2   N   0.524308262909320   0.764405228727900   0.120944441683948   1.0000000
N2   N   0.667184922602686   0.905777531173111   0.113365837323602   1.0000000
N2   N   0.666797718237164   0.047883209800447   0.106450502559876   1.0000000
N2   N   0.666813060632219   0.190340165349088   0.106793204123982   1.0000000
N2   N   0.667190431155948   0.332811379393091   0.114073875959771   1.0000000
N2   N   0.668681909853976   0.475698462274808   0.120915510021788   1.0000000
N2   N   0.667184579160384   0.619296330680523   0.115210196042300   1.0000000
N2   N   0.668694789253794   0.764406346026866   0.120552024829013   1.0000000
N2   N   0.810281170451495   0.905649824573998   0.111201667324703   1.0000000
N2   N   0.809649513908552   0.047873231172202   0.105654052809663   1.0000000
N2   N   0.809526996653081   0.190474658038944   0.103659919174452   1.0000000
N2   N   0.809661572759070   0.333188624528773   0.106793198183987   1.0000000
N2   N   0.810287058889837   0.476040008611105   0.112346066627264   1.0000000
N2   N   0.810065223494813   0.619174326517269   0.114563802393912   1.0000000
N2   N   0.810060537612263   0.762318484411344   0.114138815822809   1.0000000


