data_1
_audit_creation_method   'vasp2cif'
_cell_length_a    17.52789999999977
_cell_length_b    17.52789999999977
_cell_length_c    15.0
_cell_angle_alpha    90.0
_cell_angle_beta    90.0
_cell_angle_gamma    119.99999999999916

_symmetry_space_group_name_H-M    'P 1'
loop_
_atom_site_label
_atom_site_type_symbol
_atom_site_fract_x
_atom_site_fract_y
_atom_site_fract_z
_atom_site_occupancy
B2   B   0.904617924319498   0.951561847600701   0.111027554836642   1.0000000
B2   B   0.905459981489896   0.094579971668270   0.111062801949155   1.0000000
B2   B   0.905759495834923   0.237589710661126   0.111061828648965   1.0000000
B2   B   0.905808623626798   0.380898034713513   0.111015902025868   1.0000000
B2   B   0.904648254549887   0.524022559606670   0.110999931427796   1.0000000
B2   B   0.903969978565204   0.666554934701372   0.111079320797253   1.0000000
B2   B   0.903457049262325   0.808463843325960   0.111050051381941   1.0000000
B2   B   0.049196714553382   0.954625539678462   0.110996651187714   1.0000000
B2   B   0.049616382853498   0.096813211987642   0.111004077781391   1.0000000
B2   B   0.049093997564862   0.238694071715923   0.111021219378958   1.0000000
B2   B   0.047908913335848   0.381428418012555   0.111024782670687   1.0000000
B2   B   0.046899224766681   0.524646748901368   0.111016342119767   1.0000000
B2   B   0.047145964077220   0.667743791745857   0.111006639845368   1.0000000
B2   B   0.047635207092282   0.810802579079333   0.110982878684633   1.0000000
B2   B   0.191559663565697   0.955019341525460   0.110969042759440   1.0000000
B2   B   0.195986035892788   0.101636520262826   0.111030548222366   1.0000000
B2   B   0.194457044880206   0.242008819939859   0.111001517429805   1.0000000
B2   B   0.190841345887270   0.382905320315244   0.110994616287788   1.0000000
B2   B   0.188439646019228   0.525402945588839   0.111070259709398   1.0000000
B2   B   0.189400938878712   0.668323507287891   0.111100811437341   1.0000000
B2   B   0.190345926375794   0.811340618031699   0.111006078818278   1.0000000
B2   B   0.333756202134200   0.954236185175742   0.111025295006017   1.0000000
B2   B   0.335360088383664   0.098594635837408   0.111040661037945   1.0000000
B2   B   0.346644952566959   0.251323334791386   0.111062733846352   1.0000000
B2   B   0.335802853052227   0.387757218655943   0.111015805640672   1.0000000
B2   B   0.329165925183650   0.528443498360567   0.111015975989908   1.0000000
B2   B   0.331333344754012   0.669216050167864   0.111102743133196   1.0000000
B2   B   0.332834342733970   0.811241727546053   0.111107382679800   1.0000000
B2   B   0.476300637241662   0.951735839262712   0.111025024837021   1.0000000
B2   B   0.477231490024143   0.094228450455832   0.111007803712718   1.0000000
B2   B   0.478505648224269   0.235861802243526   0.110976887013504   1.0000000
B2   B   0.472604218958490   0.664658188423266   0.111013845210489   1.0000000
B2   B   0.475400656708143   0.808643566762436   0.111076320647696   1.0000000
B2   B   0.618940539197664   0.950500777752736   0.111005760043936   1.0000000
B2   B   0.619884388240400   0.093716034596076   0.111007783444126   1.0000000
B2   B   0.621239950500088   0.236419508667972   0.111001136177574   1.0000000
B2   B   0.623524721733350   0.379660539106957   0.110988095630212   1.0000000
B2   B   0.608861427448262   0.510798272346715   0.111080344355786   1.0000000
B2   B   0.614721451681752   0.659635004450650   0.111021332040259   1.0000000
B2   B   0.617590210603777   0.806336212833859   0.110997049578557   1.0000000
B2   B   0.761509741660973   0.950313335335006   0.111049504785643   1.0000000
B2   B   0.762458616684613   0.093819030263039   0.111059459436164   1.0000000
B2   B   0.763312189901042   0.237061576841808   0.111031717227322   1.0000000
B2   B   0.764197023785131   0.380328047781295   0.111019875787659   1.0000000
B2   B   0.761162924526540   0.522612029448524   0.111089781530380   1.0000000
B2   B   0.757322717862855   0.661573151620318   0.111071766078387   1.0000000
B2   B   0.759512551348835   0.805927770794651   0.111027977741196   1.0000000
C2   C   0.465354663732032   0.519670380768125   0.110993506354242   1.0000000
C2   C   0.491262932069728   0.451542571123356   0.111050237416428   1.0000000
N2   N   0.952636914776386   0.904662535070534   0.111009796480476   1.0000000
N2   N   0.953590379981484   0.047513391087831   0.111012818032249   1.0000000
N2   N   0.953773803435614   0.190237386899022   0.111039919106098   1.0000000
N2   N   0.953204975190866   0.333115527638858   0.111013782694965   1.0000000
N2   N   0.952135388301758   0.476356293559190   0.110963393248467   1.0000000
N2   N   0.951756614978357   0.619373694342822   0.111007287415323   1.0000000
N2   N   0.951733443866149   0.761891132425525   0.111040566121675   1.0000000
N2   N   0.096137615685104   0.906661757520263   0.110940625106652   1.0000000
N2   N   0.099218448461790   0.051492153739411   0.110987575807902   1.0000000
N2   N   0.098717627271403   0.192768128923262   0.110982599357516   1.0000000
N2   N   0.096358976936782   0.334246706985005   0.110984730334062   1.0000000
N2   N   0.094268603586482   0.476817390224861   0.111021782144579   1.0000000
N2   N   0.094507669016330   0.620014556614977   0.111022756068621   1.0000000
N2   N   0.095046387076444   0.763190321178768   0.110970287991507   1.0000000
N2   N   0.238538967126914   0.906886590799371   0.110968648816917   1.0000000
N2   N   0.240592657143455   0.051498443622541   0.111005978878653   1.0000000
N2   N   0.248314038319036   0.200822003574835   0.111019262105065   1.0000000
N2   N   0.241691390850197   0.337624324383740   0.110972269907480   1.0000000
N2   N   0.236145740563594   0.477992590932509   0.111020526185410   1.0000000
N2   N   0.236775747602494   0.620508138002946   0.111106699546543   1.0000000
N2   N   0.237701933647445   0.763475982827012   0.111071816202872   1.0000000
N2   N   0.381043709462687   0.906037394349962   0.111039831314975   1.0000000
N2   N   0.381974405768570   0.049727744716779   0.111007259368087   1.0000000
N2   N   0.384721922665087   0.195640334416638   0.111054872840704   1.0000000
N2   N   0.403776755675074   0.362819128953638   0.111035744739811   1.0000000
N2   N   0.377757100231089   0.482634193416485   0.110965407321059   1.0000000
N2   N   0.378783244080615   0.621343860399016   0.111045387568270   1.0000000
N2   N   0.380314291729320   0.763248750653671   0.111110240853322   1.0000000
N2   N   0.523596656653093   0.903376755496734   0.111012129236708   1.0000000
N2   N   0.524515219735653   0.046551915169311   0.110969671629277   1.0000000
N2   N   0.526149207853271   0.188732969026033   0.110978889996311   1.0000000
N2   N   0.532870542576734   0.326409669008382   0.110713919615341   1.0000000
N2   N   0.516401685390007   0.609941094460364   0.110971628329632   1.0000000
N2   N   0.522185771243107   0.758930819298536   0.111009614611316   1.0000000
N2   N   0.665771148591467   0.901627698171725   0.110994300000455   1.0000000
N2   N   0.667066097599333   0.045699959733558   0.111004476844835   1.0000000
N2   N   0.668231646533312   0.188846424473073   0.110994095999862   1.0000000
N2   N   0.669766099714425   0.331522424034235   0.110994395175001   1.0000000
N2   N   0.664698673807742   0.473464046956675   0.111085713827615   1.0000000
N2   N   0.657901780072782   0.608593067272906   0.111037026354431   1.0000000
N2   N   0.662567215233817   0.755435970652417   0.110976769111468   1.0000000
N2   N   0.808313335393802   0.901877383217433   0.111013508502711   1.0000000
N2   N   0.809828692759774   0.045894927923546   0.111053663896492   1.0000000
N2   N   0.810586703377090   0.189290558942858   0.111055660967801   1.0000000
N2   N   0.811047916306255   0.332565367656052   0.111009920365008   1.0000000
N2   N   0.809328399356336   0.475708082371837   0.111017333182165   1.0000000
N2   N   0.807575798752986   0.617318906619414   0.111083527041378   1.0000000
N2   N   0.806226585199056   0.757824869335044   0.111049072290226   1.0000000


