data_1
_audit_creation_method   'vasp2cif'
_cell_length_a    17.52789999999977
_cell_length_b    17.52789999999977
_cell_length_c    15.0
_cell_angle_alpha    90.0
_cell_angle_beta    90.0
_cell_angle_gamma    119.99999999999916

_symmetry_space_group_name_H-M    'P 1'
loop_
_atom_site_label
_atom_site_type_symbol
_atom_site_fract_x
_atom_site_fract_y
_atom_site_fract_z
_atom_site_occupancy
B2   B   0.904842500929870   0.952320006714972   0.111020056456710   1.0000000
B2   B   0.904802681516073   0.095199671473468   0.111053510811619   1.0000000
B2   B   0.904796064938907   0.238153588244714   0.111052422849739   1.0000000
B2   B   0.904823015867494   0.381090666163137   0.111010573540034   1.0000000
B2   B   0.904696450782319   0.523942434968251   0.111003602535173   1.0000000
B2   B   0.904960873107846   0.666758525605225   0.111039707311133   1.0000000
B2   B   0.904702776573577   0.809326965125111   0.111025961470885   1.0000000
B2   B   0.047674450306541   0.952327988799313   0.111004658676150   1.0000000
B2   B   0.047682904449231   0.095158646991142   0.111017068182102   1.0000000
B2   B   0.047699788990167   0.238122944922857   0.111001726050571   1.0000000
B2   B   0.047683525568907   0.381079873068633   0.111013160109120   1.0000000
B2   B   0.047667520961532   0.523917307566690   0.111007406336370   1.0000000
B2   B   0.047705146103276   0.666742133629028   0.111008825904665   1.0000000
B2   B   0.047716129834279   0.809543218629486   0.110990543993548   1.0000000
B2   B   0.190458445745632   0.952285543103610   0.110982533718855   1.0000000
B2   B   0.190674921545654   0.095299100851711   0.111016800626259   1.0000000
B2   B   0.190481826935364   0.237970125371391   0.111001988727598   1.0000000
B2   B   0.190490299419427   0.381081663562430   0.110998785187198   1.0000000
B2   B   0.190667263277903   0.523934864676495   0.111044609621139   1.0000000
B2   B   0.190454887475905   0.666742741689681   0.111047139131609   1.0000000
B2   B   0.190470891151424   0.809530813330180   0.110998974334678   1.0000000
B2   B   0.333259122696499   0.952295721738618   0.111006694333655   1.0000000
B2   B   0.333243237375147   0.095041134666221   0.111032078353945   1.0000000
B2   B   0.333797684795139   0.238241085249123   0.111055585554258   1.0000000
B2   B   0.332830477327626   0.380704131004489   0.111045693818688   1.0000000
B2   B   0.333805723134680   0.524121438781843   0.111063690204325   1.0000000
B2   B   0.333243635265587   0.666758418641490   0.111068490074075   1.0000000
B2   B   0.333259277770527   0.809546840791219   0.111052045770364   1.0000000
B2   B   0.476085015157252   0.952334530829456   0.111011585462281   1.0000000
B2   B   0.476058812259880   0.095304201759817   0.111003365792528   1.0000000
B2   B   0.475862869737773   0.238243489748054   0.111049620402718   1.0000000
B2   B   0.476189928518582   0.380961218505064   0.111062914254575   1.0000000
B2   B   0.476196112853103   0.523804893417257   0.111064579123167   1.0000000
B2   B   0.475880467432884   0.666195742571040   0.111062640818880   1.0000000
B2   B   0.476067291094614   0.809334208150914   0.111051547635851   1.0000000
B2   B   0.618922447950768   0.952318342821844   0.111018509846495   1.0000000
B2   B   0.618911397526320   0.095178708376378   0.111013911364787   1.0000000
B2   B   0.618901280768173   0.237983899929328   0.111015820068731   1.0000000
B2   B   0.619292649819124   0.380707555353326   0.111029885478191   1.0000000
B2   B   0.619039740616373   0.523811576041285   0.111061787156601   1.0000000
B2   B   0.619297628689809   0.667171280640073   0.111039654285838   1.0000000
B2   B   0.618920376184712   0.809511405105129   0.110998416586361   1.0000000
B2   B   0.761879364744414   0.952302332761171   0.111005556419769   1.0000000
B2   B   0.761848888249677   0.095206378411351   0.111056732762168   1.0000000
B2   B   0.761863455858651   0.238138446702046   0.111054284662237   1.0000000
B2   B   0.762014970790717   0.381098421789829   0.111016123653195   1.0000000
B2   B   0.761757479555372   0.524138219796858   0.111053803644044   1.0000000
B2   B   0.761760491508288   0.666204490700520   0.111059425830595   1.0000000
B2   B   0.762031699462354   0.809520379664410   0.111002020666333   1.0000000
N2   N   0.952216742852104   0.904475846860819   0.111002510595716   1.0000000
N2   N   0.952463448642523   0.047539071286571   0.111030848305593   1.0000000
N2   N   0.952530500036875   0.190544469347620   0.111018328974411   1.0000000
N2   N   0.952452794839395   0.333484556058113   0.111019074339833   1.0000000
N2   N   0.952207531719413   0.476306314044196   0.110994831099086   1.0000000
N2   N   0.952139525763573   0.619010269180138   0.110994350876618   1.0000000
N2   N   0.952144315213453   0.761696103601690   0.110987946973260   1.0000000
N2   N   0.095247406395147   0.904754584219737   0.110984676629139   1.0000000
N2   N   0.095526088835152   0.047786006725846   0.110995662651464   1.0000000
N2   N   0.095626005943134   0.190643699504456   0.110995589427135   1.0000000
N2   N   0.095627337298432   0.333538359838388   0.110979506008037   1.0000000
N2   N   0.095517939159799   0.476301411494149   0.111003541397435   1.0000000
N2   N   0.095239898435700   0.619061632778575   0.110991941304227   1.0000000
N2   N   0.095185690297652   0.761880185508359   0.110994768707438   1.0000000
N2   N   0.238121578362880   0.904816195090164   0.110984624603044   1.0000000
N2   N   0.238305059404346   0.047857242097820   0.110974360927595   1.0000000
N2   N   0.239007371502383   0.191270585522028   0.110998296755646   1.0000000
N2   N   0.238806175799953   0.333686837247561   0.111011220673059   1.0000000
N2   N   0.239011252683015   0.476304445387123   0.111005565770084   1.0000000
N2   N   0.238300610477087   0.619010585392784   0.111024997219639   1.0000000
N2   N   0.238117654864990   0.761884508047137   0.111017843286411   1.0000000
N2   N   0.380940319833329   0.904762070389977   0.110995369801466   1.0000000
N2   N   0.380991018615109   0.047862055912635   0.110997907442638   1.0000000
N2   N   0.381307103136617   0.191189618174351   0.111041458406504   1.0000000
N2   N   0.383114769045265   0.335710725966272   0.111042225250723   1.0000000
N2   N   0.383122042647369   0.475976233433962   0.111040843627964   1.0000000
N2   N   0.381316406643750   0.618685026309498   0.111051622041629   1.0000000
N2   N   0.380991170670970   0.761700909432354   0.111036838444083   1.0000000
N2   N   0.523700687498374   0.904484220095831   0.111007599676132   1.0000000
N2   N   0.523695539877171   0.047794365023764   0.110995773534481   1.0000000
N2   N   0.523685325466468   0.191277075156219   0.111007771278951   1.0000000
N2   N   0.524018392591028   0.335715459176220   0.111035269854601   1.0000000
N2   N   0.524024807818828   0.616878511163920   0.111034566711959   1.0000000
N2   N   0.523697138384248   0.760990131073859   0.111008445045922   1.0000000
N2   N   0.666463871615552   0.904374624404690   0.110982494723585   1.0000000
N2   N   0.666517710326736   0.047549298243045   0.111025393711727   1.0000000
N2   N   0.666449663037566   0.190664426499339   0.111010483250353   1.0000000
N2   N   0.666303182805170   0.333697897000285   0.111008127637479   1.0000000
N2   N   0.664285786284006   0.475982520479293   0.111036406156009   1.0000000
N2   N   0.664290757085993   0.616886256572743   0.111038635315814   1.0000000
N2   N   0.666314808521301   0.761195122459096   0.111003906143003   1.0000000
N2   N   0.809359260934801   0.904376447026636   0.110997387275761   1.0000000
N2   N   0.809458007294198   0.047472119770057   0.111024766738071   1.0000000
N2   N   0.809451751029124   0.190550783996827   0.111039154707284   1.0000000
N2   N   0.809337778124004   0.333552828842768   0.111008983791320   1.0000000
N2   N   0.808724239392852   0.476315796472276   0.111011494192507   1.0000000
N2   N   0.808811499187887   0.618693630573591   0.111050625264413   1.0000000
N2   N   0.808731508093879   0.760994582232493   0.111003597525925   1.0000000


