data_1
_audit_creation_method   'vasp2cif'
_cell_length_a    17.52789999999977
_cell_length_b    17.52789999999977
_cell_length_c    15.0
_cell_angle_alpha    90.0
_cell_angle_beta    90.0
_cell_angle_gamma    119.99999999999916

_symmetry_space_group_name_H-M    'P 1'
loop_
_atom_site_label
_atom_site_type_symbol
_atom_site_fract_x
_atom_site_fract_y
_atom_site_fract_z
_atom_site_occupancy
B2   B   0.906021007151348   0.953341457281900   0.111017568039984   1.0000000
B2   B   0.904681395780641   0.095320625415356   0.110996993845479   1.0000000
B2   B   0.904212069479671   0.237820381585341   0.111032179702442   1.0000000
B2   B   0.904681395780641   0.380789464056274   0.110996993845479   1.0000000
B2   B   0.906021007151348   0.524109955117446   0.111017568039984   1.0000000
B2   B   0.905783135955694   0.667222027969728   0.111053250045694   1.0000000
B2   B   0.905783135955694   0.809991513233964   0.111053250045694   1.0000000
B2   B   0.047857824130538   0.952144197065459   0.111016743945004   1.0000000
B2   B   0.046660563914101   0.093981014044650   0.111017568039984   1.0000000
B2   B   0.045816832159695   0.236819988094580   0.111001387704310   1.0000000
B2   B   0.045816832159695   0.380427249312114   0.111001387704310   1.0000000
B2   B   0.046660563914101   0.524109955117446   0.111017568039984   1.0000000
B2   B   0.047857824130538   0.667145743869078   0.111016743945004   1.0000000
B2   B   0.048018638161896   0.809725377482946   0.110990247462920   1.0000000
B2   B   0.190276643713057   0.951983383034107   0.110990247462920   1.0000000
B2   B   0.190010507962038   0.094218885240302   0.111053250045694   1.0000000
B2   B   0.186715904125239   0.234218807067447   0.111063271038955   1.0000000
B2   B   0.186316380601043   0.378873392924021   0.111062393848905   1.0000000
B2   B   0.186715904125239   0.523927502305793   0.111063271038955   1.0000000
B2   B   0.190010507962038   0.667222027969728   0.111053250045694   1.0000000
B2   B   0.190276643713057   0.809725377482946   0.110990247462920   1.0000000
B2   B   0.332856277327919   0.952144197065459   0.111016743945004   1.0000000
B2   B   0.332779993227268   0.094218885240302   0.111053250045694   1.0000000
B2   B   0.332648140062612   0.236724664175233   0.111094043385439   1.0000000
B2   B   0.324826579339596   0.373533167909915   0.111047740687251   1.0000000
B2   B   0.324826579339596   0.522723816676681   0.111047740687251   1.0000000
B2   B   0.332648140062612   0.667353881134386   0.111094043385439   1.0000000
B2   B   0.332779993227268   0.809991513233964   0.111053250045694   1.0000000
B2   B   0.475892066079553   0.953341457281900   0.111017568039984   1.0000000
B2   B   0.475892066079553   0.093981014044650   0.111017568039984   1.0000000
B2   B   0.476074518891203   0.234218807067447   0.111063271038955   1.0000000
B2   B   0.477278204520316   0.373533167909915   0.111047740687251   1.0000000
B2   B   0.477278204520316   0.675175441857394   0.111047740687251   1.0000000
B2   B   0.476074518891203   0.813286117070764   0.111063271038955   1.0000000
B2   B   0.619574771883887   0.954185189036309   0.111001387704310   1.0000000
B2   B   0.619212557139729   0.095320625415356   0.110996993845479   1.0000000
B2   B   0.619574771883887   0.236819988094580   0.111001387704310   1.0000000
B2   B   0.621128628271983   0.378873392924021   0.111062393848905   1.0000000
B2   B   0.626468853286089   0.522723816676681   0.111047740687251   1.0000000
B2   B   0.626468853286089   0.675175441857394   0.111047740687251   1.0000000
B2   B   0.621128628271983   0.813685640594962   0.111062393848905   1.0000000
B2   B   0.763182033101425   0.954185189036309   0.111001387704310   1.0000000
B2   B   0.762181639610661   0.095789951716326   0.111032179702442   1.0000000
B2   B   0.762181639610661   0.237820381585341   0.111032179702442   1.0000000
B2   B   0.763182033101425   0.380427249312114   0.111001387704310   1.0000000
B2   B   0.765783214128558   0.523927502305793   0.111063271038955   1.0000000
B2   B   0.763277357020771   0.667353881134386   0.111094043385439   1.0000000
B2   B   0.765783214128558   0.813286117070764   0.111063271038955   1.0000000
N2   N   0.952908114599968   0.905045508318047   0.111011289963390   1.0000000
N2   N   0.952307047600698   0.047694354317306   0.110985011265330   1.0000000
N2   N   0.951445478126185   0.190014607863430   0.110953629348177   1.0000000
N2   N   0.951445478126185   0.332857852380755   0.110953629348177   1.0000000
N2   N   0.952307047600698   0.476039675401399   0.110985011265330   1.0000000
N2   N   0.952908114599968   0.619291299956917   0.111011289963390   1.0000000
N2   N   0.953006869271743   0.762217781473371   0.110986138203421   1.0000000
N2   N   0.095337610426112   0.904663791491886   0.110985578050047   1.0000000
N2   N   0.094955893599952   0.047093287318036   0.111011289963390   1.0000000
N2   N   0.092681162510278   0.188330793911021   0.111004609991126   1.0000000
N2   N   0.092281372177430   0.331855032925715   0.110986048467447   1.0000000
N2   N   0.092681162510278   0.475779062273258   0.111004609991126   1.0000000
N2   N   0.094955893599952   0.619291299956917   0.111011289963390   1.0000000
N2   N   0.095337610426112   0.762104224165230   0.110985578050047   1.0000000
N2   N   0.237897177752774   0.904663791491886   0.110985578050047   1.0000000
N2   N   0.237783620444633   0.046994532646262   0.110986138203421   1.0000000
N2   N   0.237170824926536   0.189231609856009   0.111061713915837   1.0000000
N2   N   0.231243995123128   0.327934294336568   0.111078712382642   1.0000000
N2   N   0.231243995123128   0.474738394460547   0.111078712382642   1.0000000
N2   N   0.237170824926536   0.619367908745523   0.111061713915837   1.0000000
N2   N   0.237783620444633   0.762217781473371   0.110986138203421   1.0000000
N2   N   0.380710101961081   0.905045508318047   0.111011289963390   1.0000000
N2   N   0.380710101961081   0.047093287318036   0.111011289963390   1.0000000
N2   N   0.380633493172476   0.189231609856009   0.111061713915837   1.0000000
N2   N   0.380453569523479   0.332334430803953   0.111062258905374   1.0000000
N2   N   0.357246808475100   0.464337751074544   0.110884560848937   1.0000000
N2   N   0.380453569523479   0.619547832394518   0.111062258905374   1.0000000
N2   N   0.380633493172476   0.762830576991469   0.111061713915837   1.0000000
N2   N   0.524222339643737   0.907320239407719   0.111004609991126   1.0000000
N2   N   0.523961726515597   0.047694354317306   0.110985011265330   1.0000000
N2   N   0.524222339643737   0.188330793911021   0.111004609991126   1.0000000
N2   N   0.525263007456450   0.327934294336568   0.111078712382642   1.0000000
N2   N   0.535663650842455   0.464337751074544   0.110884560848937   1.0000000
N2   N   0.535663650842455   0.642754593442897   0.110884560848937   1.0000000
N2   N   0.525263007456450   0.768757406794884   0.111078712382642   1.0000000
N2   N   0.668146368991279   0.907720029740570   0.110986048467447   1.0000000
N2   N   0.667143549536245   0.048555923791819   0.110953629348177   1.0000000
N2   N   0.667143549536245   0.190014607863430   0.110953629348177   1.0000000
N2   N   0.668146368991279   0.331855032925715   0.110986048467447   1.0000000
N2   N   0.672067107580430   0.474738394460547   0.111078712382642   1.0000000
N2   N   0.667666971113041   0.619547832394518   0.111062258905374   1.0000000
N2   N   0.672067107580430   0.768757406794884   0.111078712382642   1.0000000
N2   N   0.811670608006978   0.907320239407719   0.111004609991126   1.0000000
N2   N   0.809986794054567   0.048555923791819   0.110953629348177   1.0000000
N2   N   0.809525273905997   0.190476128012001   0.111061810867165   1.0000000
N2   N   0.809986794054567   0.332857852380755   0.110953629348177   1.0000000
N2   N   0.811670608006978   0.475779062273258   0.111004609991126   1.0000000
N2   N   0.810769792061990   0.619367908745523   0.111061713915837   1.0000000
N2   N   0.810769792061990   0.762830576991469   0.111061713915837   1.0000000
Se2   Se   0.476191212381998   0.523810808815000   0.110892556636412   1.0000000


