data_1
_audit_creation_method   'vasp2cif'
_cell_length_a    17.52789999999977
_cell_length_b    17.52789999999977
_cell_length_c    15.0
_cell_angle_alpha    90.0
_cell_angle_beta    90.0
_cell_angle_gamma    119.99999999999916

_symmetry_space_group_name_H-M    'P 1'
loop_
_atom_site_label
_atom_site_type_symbol
_atom_site_fract_x
_atom_site_fract_y
_atom_site_fract_z
_atom_site_occupancy
P2   P   0.486207834522861   0.513793567394123   0.111847520018587   1.0000000
B2   B   0.905715783090873   0.952618440925349   0.110996295875498   1.0000000
B2   B   0.904919319380186   0.095082701815816   0.111043286994377   1.0000000
B2   B   0.904707776992960   0.237893563423805   0.111035189715842   1.0000000
B2   B   0.905080039572140   0.380839385946284   0.110989408188498   1.0000000
B2   B   0.905996966018628   0.523877698663858   0.111058042709350   1.0000000
B2   B   0.906512878999630   0.666998174837663   0.111116466209420   1.0000000
B2   B   0.906456778014607   0.810039732183377   0.111059361109622   1.0000000
B2   B   0.048194788574014   0.951807232621992   0.111024276629972   1.0000000
B2   B   0.047383580270668   0.094286238105120   0.110996295875498   1.0000000
B2   B   0.047079595087914   0.237344243642677   0.110983002536824   1.0000000
B2   B   0.047332946169076   0.380524732660826   0.110987819222897   1.0000000
B2   B   0.048122815387051   0.523584285413917   0.110996903464193   1.0000000
B2   B   0.048644088721992   0.666463756229922   0.111086486121191   1.0000000
B2   B   0.048657026776986   0.809223229729573   0.111101524169337   1.0000000
B2   B   0.190778791466432   0.951344994419007   0.111101524169337   1.0000000
B2   B   0.189962289012629   0.093545243181394   0.111059361109622   1.0000000
B2   B   0.188832193177589   0.235899291162060   0.110954924588093   1.0000000
B2   B   0.189214082578984   0.379867240831446   0.110938555323753   1.0000000
B2   B   0.190284958498782   0.523350876349012   0.111008036906245   1.0000000
B2   B   0.191035535195034   0.666241981523896   0.111030643881225   1.0000000
B2   B   0.191120442208611   0.808881578987392   0.111034416263899   1.0000000
B2   B   0.333538264967081   0.951357932474015   0.111086486121191   1.0000000
B2   B   0.333003846359340   0.093489142196370   0.111116466209420   1.0000000
B2   B   0.331480243537643   0.234664655672064   0.111003140428593   1.0000000
B2   B   0.329296277003086   0.377273608566617   0.110964098282804   1.0000000
B2   B   0.332272655881420   0.523463294968435   0.111011003242578   1.0000000
B2   B   0.333638596530856   0.666363424666134   0.111080741233313   1.0000000
B2   B   0.333760039673106   0.808966486000973   0.111030643881225   1.0000000
B2   B   0.476417735783086   0.951879205808953   0.110996903464193   1.0000000
B2   B   0.476124322533153   0.094005055177359   0.111058042709350   1.0000000
B2   B   0.475604042472509   0.235476293785319   0.111027380380099   1.0000000
B2   B   0.471567223470345   0.371326351602769   0.111055680089186   1.0000000
B2   B   0.476538726228576   0.667729365315578   0.111011003242578   1.0000000
B2   B   0.476651144847995   0.809717062697230   0.111008036906245   1.0000000
B2   B   0.619477288535157   0.952669075026931   0.110987819222897   1.0000000
B2   B   0.619162635249727   0.094921981623849   0.110989408188498   1.0000000
B2   B   0.619220646152171   0.237366203015536   0.110978123603130   1.0000000
B2   B   0.619924237871288   0.380077783324719   0.110993257956165   1.0000000
B2   B   0.628675669593211   0.528434797726654   0.111055680089186   1.0000000
B2   B   0.622728412629378   0.670705744193924   0.110964098282804   1.0000000
B2   B   0.620134780364557   0.810787938617013   0.110938555323753   1.0000000
B2   B   0.762657777553323   0.952922426108094   0.110983002536824   1.0000000
B2   B   0.762108457772204   0.095294244203038   0.111035189715842   1.0000000
B2   B   0.762079458738842   0.237922562457169   0.111043144242536   1.0000000
B2   B   0.762635818180466   0.380781375043817   0.110978123603130   1.0000000
B2   B   0.764525727410689   0.524397978724485   0.111027380380099   1.0000000
B2   B   0.765337365523940   0.668521777659360   0.111003140428593   1.0000000
B2   B   0.764102730033945   0.811169828018414   0.110954924588093   1.0000000
N2   N   0.953152956696103   0.904750694741084   0.110998367213487   1.0000000
N2   N   0.952586962398943   0.047414439519071   0.110998828585574   1.0000000
N2   N   0.952230160316766   0.190182567243491   0.111017723592720   1.0000000
N2   N   0.952333395620863   0.333086987135944   0.110988322340730   1.0000000
N2   N   0.952909783359743   0.476007527226628   0.110979832849030   1.0000000
N2   N   0.953285016885214   0.618918847444338   0.111106272571941   1.0000000
N2   N   0.953356708572563   0.761840743933198   0.111097079677178   1.0000000
N2   N   0.095782105992888   0.904219295925109   0.111053790098695   1.0000000
N2   N   0.095250707176915   0.046848445221906   0.110998367213487   1.0000000
N2   N   0.094526432243281   0.189372940339317   0.110957210302999   1.0000000
N2   N   0.094715697131605   0.332632833421381   0.110950388635511   1.0000000
N2   N   0.095397722626291   0.475717787503097   0.110971964221042   1.0000000
N2   N   0.095913660671849   0.618655166768472   0.111007730018229   1.0000000
N2   N   0.095995504049646   0.761468412338084   0.111057570199190   1.0000000
N2   N   0.238532989579924   0.904005897868345   0.111057570199190   1.0000000
N2   N   0.238160657984807   0.046644693345440   0.111097079677178   1.0000000
N2   N   0.237309382762521   0.188969707296421   0.110992917824050   1.0000000
N2   N   0.236026374426729   0.331102281069020   0.110905690997323   1.0000000
N2   N   0.237795029799380   0.475296519163449   0.110957015539563   1.0000000
N2   N   0.238637465901023   0.618454172506393   0.111026901056251   1.0000000
N2   N   0.238710298790073   0.761291103127939   0.111002185131063   1.0000000
N2   N   0.381346235149524   0.904087741246157   0.111007730018229   1.0000000
N2   N   0.381082554473669   0.046716385032783   0.111106272571941   1.0000000
N2   N   0.380742945354929   0.189262474205384   0.111045813148937   1.0000000
N2   N   0.379304800057612   0.331420547944954   0.110949097393859   1.0000000
N2   N   0.377015533876409   0.472227741363080   0.111009941139373   1.0000000
N2   N   0.381622107192484   0.618379294725499   0.111057429912303   1.0000000
N2   N   0.381547229411602   0.761363936016972   0.111026901056251   1.0000000
N2   N   0.524283614413892   0.904603679291712   0.110971964221042   1.0000000
N2   N   0.523993874690372   0.047091618558270   0.110979832849030   1.0000000
N2   N   0.523893743079538   0.189608629752138   0.111000066681072   1.0000000
N2   N   0.524148654570659   0.332386887723932   0.110986993553522   1.0000000
N2   N   0.527773660553900   0.622985868041582   0.111009941139373   1.0000000
N2   N   0.524704882753560   0.762206372118625   0.110957015539563   1.0000000
N2   N   0.667368568495613   0.905285704786385   0.110950388635511   1.0000000
N2   N   0.666914414781069   0.047668006297131   0.110988322340730   1.0000000
N2   N   0.666764008390197   0.190286412674161   0.110990836258980   1.0000000
N2   N   0.666886173097104   0.333115228819885   0.110949380867869   1.0000000
N2   N   0.667614514193068   0.475852747346339   0.110986993553522   1.0000000
N2   N   0.668580853972063   0.620696601860387   0.110949097393859   1.0000000
N2   N   0.668899120847972   0.763975027491272   0.110905690997323   1.0000000
N2   N   0.810628461578688   0.905474969674730   0.110957210302999   1.0000000
N2   N   0.809818834674503   0.047771241601246   0.111017723592720   1.0000000
N2   N   0.809565836956788   0.190435564961190   0.111047945860902   1.0000000
N2   N   0.809714989243830   0.333237393526791   0.110990836258980   1.0000000
N2   N   0.810392772165849   0.476107658837462   0.111000066681072   1.0000000
N2   N   0.810738927712615   0.619258456563085   0.111045813148937   1.0000000
N2   N   0.811031694621592   0.762692019155482   0.110992917824050   1.0000000


