data_1
_audit_creation_method   'vasp2cif'
_cell_length_a    17.52789999999977
_cell_length_b    17.52789999999977
_cell_length_c    15.0
_cell_angle_alpha    90.0
_cell_angle_beta    90.0
_cell_angle_gamma    119.99999999999916

_symmetry_space_group_name_H-M    'P 1'
loop_
_atom_site_label
_atom_site_type_symbol
_atom_site_fract_x
_atom_site_fract_y
_atom_site_fract_z
_atom_site_occupancy
B2   B   0.904643709595452   0.952786679764140   0.110988063569894   1.0000000
B2   B   0.905580154693108   0.096572986158082   0.111028070012580   1.0000000
B2   B   0.905535680919115   0.239537690253863   0.111071457759464   1.0000000
B2   B   0.905011477587232   0.382068008627373   0.110994286028938   1.0000000
B2   B   0.904406184157800   0.524383689610824   0.110975279530640   1.0000000
B2   B   0.902463780010451   0.666433008361816   0.111039067505670   1.0000000
B2   B   0.903284955691278   0.809033506291656   0.111027486770560   1.0000000
B2   B   0.046854975139404   0.951431609170075   0.110970505468405   1.0000000
B2   B   0.047415294181087   0.094833993770266   0.110975867666691   1.0000000
B2   B   0.048335018084250   0.238721315001411   0.110994985418635   1.0000000
B2   B   0.048819053066261   0.381854536651114   0.111008408348027   1.0000000
B2   B   0.048691521314306   0.524236598470022   0.110996126575417   1.0000000
B2   B   0.047682229091005   0.666208906963943   0.111003813902713   1.0000000
B2   B   0.046832153115069   0.808538965569177   0.110981118531942   1.0000000
B2   B   0.189913264795721   0.950864478919622   0.110992862406032   1.0000000
B2   B   0.189784560109956   0.093720259013700   0.111025677864746   1.0000000
B2   B   0.189896995180369   0.236616906579905   0.110970420478353   1.0000000
B2   B   0.191927076369049   0.381181654779335   0.110956860506835   1.0000000
B2   B   0.192929991830951   0.524076966703256   0.110989231604117   1.0000000
B2   B   0.193022528677695   0.666095999440833   0.111022047919219   1.0000000
B2   B   0.190805944505183   0.808391422980636   0.110973754841109   1.0000000
B2   B   0.333470987406759   0.951153828117360   0.111015459873796   1.0000000
B2   B   0.332531208145358   0.093217269092581   0.111055652237909   1.0000000
B2   B   0.332481004364041   0.235367906682706   0.111063585904148   1.0000000
B2   B   0.332423342219840   0.377416161907118   0.111070863415317   1.0000000
B2   B   0.336642362787717   0.523912776666797   0.111063589153666   1.0000000
B2   B   0.339567332112532   0.666196341292831   0.111055365495498   1.0000000
B2   B   0.334730411870253   0.808604749601619   0.111022026389199   1.0000000
B2   B   0.476937137461732   0.952786570761807   0.110978533982111   1.0000000
B2   B   0.476063396934802   0.095261811928847   0.110964137323589   1.0000000
B2   B   0.474750906307807   0.237183224674409   0.111027660638181   1.0000000
B2   B   0.490195441821831   0.669224346434646   0.111100031259356   1.0000000
B2   B   0.478264467665467   0.810276080199717   0.111040954700246   1.0000000
B2   B   0.620143085003645   0.954740021912556   0.110983632400992   1.0000000
B2   B   0.619455463718459   0.096783670863173   0.110976341487243   1.0000000
B2   B   0.618679543039369   0.239235576793658   0.110986205193460   1.0000000
B2   B   0.617181719704211   0.382299630189621   0.111036603695604   1.0000000
B2   B   0.616684929242927   0.524724551807465   0.111253680047806   1.0000000
B2   B   0.609149686600486   0.669820562558293   0.111065819509154   1.0000000
B2   B   0.621435986065408   0.813933787309803   0.110987787957828   1.0000000
B2   B   0.763224523565112   0.954730218793813   0.110977168178939   1.0000000
B2   B   0.762761698003776   0.097218227139238   0.111041203383095   1.0000000
B2   B   0.762112663440015   0.239683047621080   0.111033295120783   1.0000000
B2   B   0.760922158072151   0.382097385445152   0.111000193458813   1.0000000
B2   B   0.760491452446259   0.524708305971649   0.111027507565209   1.0000000
B2   B   0.756313595241579   0.666862990563607   0.111051774675393   1.0000000
B2   B   0.761339503681764   0.810616047381536   0.111010243834440   1.0000000
C2   C   0.473724010027158   0.378128561466563   0.111344337997980   1.0000000
C2   C   0.468816918461018   0.512397911550204   0.111187866944111   1.0000000
C2   C   0.516591677045996   0.469368098267605   0.111522019094605   1.0000000
N2   N   0.951586541606401   0.904387123647161   0.110977802235982   1.0000000
N2   N   0.952446207444506   0.048064640788548   0.110982605297845   1.0000000
N2   N   0.953169923714890   0.191746998326888   0.111023298003993   1.0000000
N2   N   0.953234648849099   0.334693006620418   0.111006965876179   1.0000000
N2   N   0.952909184890241   0.477210036384472   0.110948081677810   1.0000000
N2   N   0.951611229675959   0.619412587831642   0.110989665063494   1.0000000
N2   N   0.951180187782733   0.761532276430850   0.111010340768866   1.0000000
N2   N   0.094582923485157   0.903726849014078   0.110943317144367   1.0000000
N2   N   0.094666002097510   0.046704870961292   0.110971980501648   1.0000000
N2   N   0.095071264015563   0.190029634159777   0.110952853516129   1.0000000
N2   N   0.096494941614817   0.334012427748833   0.110964125912144   1.0000000
N2   N   0.097064103176655   0.477031319466728   0.110979065245380   1.0000000
N2   N   0.096806516593115   0.619266477915679   0.110996303970559   1.0000000
N2   N   0.095233865841724   0.761296283059838   0.110959944167386   1.0000000
N2   N   0.238114148382923   0.903607378979336   0.110964581897087   1.0000000
N2   N   0.237379003026628   0.046003369321720   0.111016801509423   1.0000000
N2   N   0.237516725682673   0.188987634123058   0.110996671593639   1.0000000
N2   N   0.238000119328237   0.331587074146509   0.110945218159375   1.0000000
N2   N   0.240698190909583   0.476575420203946   0.110962809208350   1.0000000
N2   N   0.242604864870223   0.619241796333827   0.111009356318107   1.0000000
N2   N   0.239387346766804   0.761221695130201   0.110995492998917   1.0000000
N2   N   0.381645957457090   0.904044491323383   0.110994312560241   1.0000000
N2   N   0.380774692563070   0.046454817538540   0.111001674235301   1.0000000
N2   N   0.379896301495902   0.188206492043411   0.111036601123251   1.0000000
N2   N   0.381189380891694   0.330254429496178   0.111125050402660   1.0000000
N2   N   0.379159614417062   0.471976795602734   0.111086651705454   1.0000000
N2   N   0.391051017653674   0.619490865913605   0.111062521690159   1.0000000
N2   N   0.383391453314953   0.761445080051615   0.111033265964453   1.0000000
N2   N   0.525031301169926   0.905815948307906   0.110978843881750   1.0000000
N2   N   0.524157753804024   0.048279265695970   0.110939609922072   1.0000000
N2   N   0.523365776797672   0.190873185368234   0.110943992019549   1.0000000
N2   N   0.520635613477908   0.332875637745694   0.111107539129453   1.0000000
N2   N   0.526970659060360   0.763958526422977   0.111035873201607   1.0000000
N2   N   0.668415708521700   0.908161189195396   0.110950119622166   1.0000000
N2   N   0.667520945909690   0.049775065703520   0.110983503695318   1.0000000
N2   N   0.666750439718594   0.192022925567444   0.110990173451456   1.0000000
N2   N   0.665139845054303   0.334455615286385   0.110969204984479   1.0000000
N2   N   0.665065381161498   0.477486271622343   0.111044123150343   1.0000000
N2   N   0.658714315365145   0.620425024808755   0.111081491516364   1.0000000
N2   N   0.666345494841501   0.764340815493663   0.110982475339301   1.0000000
N2   N   0.809659320208225   0.905991346212538   0.110967228213754   1.0000000
N2   N   0.810575856624038   0.049711616396127   0.111011041618641   1.0000000
N2   N   0.810199482571622   0.192358722155387   0.111057543059317   1.0000000
N2   N   0.809339116670413   0.334847372626888   0.110996271730756   1.0000000
N2   N   0.808740929482055   0.477308685607685   0.110973948706038   1.0000000
N2   N   0.806149787503683   0.619726619234899   0.111035057323226   1.0000000
N2   N   0.807627962437533   0.762070776292394   0.111018400229793   1.0000000


