data_1
_audit_creation_method   'vasp2cif'
_cell_length_a    14.93631414619966
_cell_length_b    14.936314146199727
_cell_length_c    13.341276283792837
_cell_angle_alpha    90.0
_cell_angle_beta    90.0
_cell_angle_gamma    119.99999999999984

_symmetry_space_group_name_H-M    'P 1'
loop_
_atom_site_label
_atom_site_type_symbol
_atom_site_fract_x
_atom_site_fract_y
_atom_site_fract_z
_atom_site_occupancy
As2   As   0.502014642674763   0.417673988004046   0.375000000000000   1.0000000
N2   N   0.111095887241363   0.055535715155537   0.124980897182510   1.0000000
N2   N   0.611087074171342   0.555575521814931   0.123742858939334   1.0000000
N2   N   0.444432201234055   0.055528804796140   0.124942695193054   1.0000000
N2   N   0.944399559763558   0.555536944048402   0.125008544601354   1.0000000
N2   N   0.777786624664897   0.055559978999120   0.124915927555911   1.0000000
N2   N   0.111068185435294   0.722200759384311   0.625033139086736   1.0000000
N2   N   0.444432201234055   0.722236729771251   0.625057304806939   1.0000000
N2   N   0.277759395152705   0.222200889584838   0.625333771527756   1.0000000
N2   N   0.777744554090348   0.722208992936414   0.625183650921041   1.0000000
N2   N   0.611094195435893   0.222186727212400   0.625334803412940   1.0000000
N2   N   0.944449055727452   0.222228028552049   0.625029313566369   1.0000000
N2   N   0.277749999198299   0.722214205231297   0.124976967918607   1.0000000
N2   N   0.111110881578867   0.222222107456094   0.124971497762932   1.0000000
N2   N   0.444432397117468   0.222194405647400   0.124489371856465   1.0000000
N2   N   0.611094195435893   0.722240801556822   0.124665196587060   1.0000000
N2   N   0.944399559763558   0.722195949048498   0.125008544601354   1.0000000
N2   N   0.777774766993896   0.222214178409468   0.124919662070108   1.0000000
N2   N   0.111078819671957   0.888862692041452   0.625016144554942   1.0000000
N2   N   0.444432040069285   0.888882686701303   0.625015543473714   1.0000000
N2   N   0.277759395152705   0.388891838901203   0.625333771527756   1.0000000
N2   N   0.611087074171342   0.388844885689733   0.626257141060666   1.0000000
N2   N   0.777774766993896   0.888893921917757   0.625080337929892   1.0000000
N2   N   0.944421596033534   0.388884266522006   0.624998675968107   1.0000000
N2   N   0.111095887241363   0.388893505419148   0.124980897182510   1.0000000
N2   N   0.277749999198299   0.888869127300337   0.124976967918607   1.0000000
N2   N   0.611111016208991   0.888900844291856   0.124926543464834   1.0000000
N2   N   0.444402798583244   0.388868065958283   0.123832035955764   1.0000000
N2   N   0.944421596033534   0.888870662844850   0.125001324031893   1.0000000
N2   N   0.777744554090348   0.388868894487263   0.124816349078966   1.0000000
N2   N   0.277757134295460   0.555557169916708   0.625046727168731   1.0000000
N2   N   0.111095887241363   0.055535715155537   0.625019102817491   1.0000000
N2   N   0.611087074171342   0.555575521814931   0.626257141060666   1.0000000
N2   N   0.444432201234055   0.055528804796140   0.625057304806938   1.0000000
N2   N   0.944399559763558   0.555536944048402   0.624991455398632   1.0000000
N2   N   0.111078819671957   0.555549460963833   0.124983855445058   1.0000000
N2   N   0.777786624664897   0.055559978999120   0.625084072444096   1.0000000
N2   N   0.277757134295460   0.055533297712087   0.124953272831269   1.0000000
N2   N   0.444432397117468   0.555571324803397   0.124489371856465   1.0000000
N2   N   0.777717213904701   0.555525273619018   0.124703542000798   1.0000000
N2   N   0.611111016208991   0.055543505250471   0.124926543464834   1.0000000
N2   N   0.444432397117468   0.555571324803397   0.625510628143536   1.0000000
N2   N   0.944449055727452   0.055554360508732   0.124970686433631   1.0000000
N2   N   0.277749999198299   0.722214205231297   0.625023032081394   1.0000000
N2   N   0.111110881578867   0.222222107456094   0.625028502237068   1.0000000
N2   N   0.444432397117468   0.222194405647400   0.625510628143536   1.0000000
N2   N   0.611094195435893   0.722240801556822   0.625334803412940   1.0000000
N2   N   0.944399559763558   0.722195949048498   0.624991455398632   1.0000000
N2   N   0.777774766993896   0.222214178409468   0.625080337929892   1.0000000
N2   N   0.111068185435294   0.722200759384311   0.124966860913264   1.0000000
N2   N   0.444432201234055   0.722236729771251   0.124942695193054   1.0000000
N2   N   0.277759395152705   0.222200889584838   0.124666228472244   1.0000000
N2   N   0.777744554090348   0.722208992936414   0.124816349078966   1.0000000
N2   N   0.611094195435893   0.222186727212400   0.124665196587060   1.0000000
N2   N   0.944449055727452   0.222228028552049   0.124970686433631   1.0000000
N2   N   0.111095887241363   0.388893505419148   0.625019102817491   1.0000000
N2   N   0.277749999198299   0.888869127300337   0.625023032081394   1.0000000
N2   N   0.611111016208991   0.888900844291856   0.625073456535166   1.0000000
N2   N   0.444402798583244   0.388868065958283   0.626167964044237   1.0000000
N2   N   0.944421596033534   0.888870662844850   0.624998675968107   1.0000000
N2   N   0.111078819671957   0.888862692041452   0.124983855445058   1.0000000
N2   N   0.777744554090348   0.388868894487263   0.625183650921041   1.0000000
N2   N   0.444432040069285   0.888882686701303   0.124984456526286   1.0000000
N2   N   0.277759395152705   0.388891838901203   0.124666228472244   1.0000000
N2   N   0.277757134295460   0.555557169916708   0.124953272831269   1.0000000
N2   N   0.611087074171342   0.388844885689733   0.123742858939334   1.0000000
N2   N   0.777774766993896   0.888893921917757   0.124919662070108   1.0000000
N2   N   0.944421596033534   0.388884266522006   0.125001324031893   1.0000000
N2   N   0.111078819671957   0.555549460963833   0.625016144554942   1.0000000
N2   N   0.277757134295460   0.055533297712087   0.625046727168731   1.0000000
N2   N   0.777717213904701   0.555525273619018   0.625296457999202   1.0000000
N2   N   0.611111016208991   0.055543505250471   0.625073456535166   1.0000000
N2   N   0.944449055727452   0.055554360508732   0.625029313566369   1.0000000
N2   N   0.057927555446449   0.112602627083418   0.375000000000000   1.0000000
N2   N   0.554461406886706   0.621558402118726   0.375000000000000   1.0000000
N2   N   0.386766829619376   0.105343155653101   0.375000000000000   1.0000000
N2   N   0.882803423691174   0.608068378512259   0.375000000000000   1.0000000
N2   N   0.723021764636260   0.110452224250333   0.375000000000000   1.0000000
N2   N   0.055587574367912   0.777795039977935   0.875000000000000   1.0000000
N2   N   0.388918916929331   0.777792065461150   0.875000000000000   1.0000000
N2   N   0.222257588717280   0.277795461025312   0.875000000000000   1.0000000
N2   N   0.722253714825357   0.777792017671739   0.875000000000000   1.0000000
N2   N   0.555580866473465   0.277790742170890   0.875000000000000   1.0000000
N2   N   0.888924797898996   0.277795882369559   0.875000000000000   1.0000000
N2   N   0.218744685410709   0.776039009372023   0.375000000000000   1.0000000
N2   N   0.057927555446449   0.278658261696359   0.375000000000000   1.0000000
N2   N   0.393484616770867   0.274715677478320   0.375000000000000   1.0000000
N2   N   0.554611684875196   0.782056369546766   0.375000000000000   1.0000000
N2   N   0.886447217743754   0.777137475865894   0.375000000000000   1.0000000
N2   N   0.722360314870724   0.275082233914190   0.375000000000000   1.0000000
N2   N   0.055588931491855   0.944463096458886   0.875000000000000   1.0000000
N2   N   0.388918916929331   0.944460184801524   0.875000000000000   1.0000000
N2   N   0.222252783263831   0.444457559820663   0.875000000000000   1.0000000
N2   N   0.555580752152688   0.444457042743005   0.875000000000000   1.0000000
N2   N   0.722253649653556   0.944458986286676   0.875000000000000   1.0000000
N2   N   0.888924536262270   0.444461624116164   0.875000000000000   1.0000000
N2   N   0.054944437312551   0.444013358378754   0.375000000000000   1.0000000
N2   N   0.219475933982421   0.942009163992630   0.375000000000000   1.0000000
N2   N   0.554608911640594   0.943971122486958   0.375000000000000   1.0000000
N2   N   0.393484616770867   0.452102272625882   0.375000000000000   1.0000000
N2   N   0.889987516392859   0.945896748352689   0.375000000000000   1.0000000
N2   N   0.716513933558309   0.439671021301517   0.375000000000000   1.0000000
N2   N   0.222252074248786   0.611122431938349   0.875000000000000   1.0000000
N2   N   0.055589294583182   0.111126862071845   0.875000000000000   1.0000000
N2   N   0.555580866473465   0.611123457635925   0.875000000000000   1.0000000
N2   N   0.388917515296231   0.111129789294780   0.875000000000000   1.0000000
N2   N   0.888924121697319   0.611128727515338   0.875000000000000   1.0000000
N2   N   0.051634622828540   0.609407867453119   0.375000000000000   1.0000000
N2   N   0.722253649653556   0.111127996700216   0.875000000000000   1.0000000
N2   N   0.223692331799623   0.111492801654554   0.375000000000000   1.0000000
N2   N   0.386766829619376   0.614757007299618   0.375000000000000   1.0000000
N2   N   0.716513933558309   0.610176245590127   0.375000000000000   1.0000000
N2   N   0.554611684875196   0.105888648661759   0.375000000000000   1.0000000
N2   N   0.388917515296231   0.611121059334794   0.875000000000000   1.0000000
N2   N   0.890740619571759   0.112036976452547   0.375000000000000   1.0000000
N2   N   0.222251921749380   0.777792627541354   0.875000000000000   1.0000000
N2   N   0.055589294583182   0.277795765844672   0.875000000000000   1.0000000
N2   N   0.388918890134706   0.277793447888139   0.875000000000000   1.0000000
N2   N   0.555584301558579   0.777792041244304   0.875000000000000   1.0000000
N2   N   0.888924536262270   0.777796245479442   0.875000000000000   1.0000000
N2   N   0.722253714825357   0.277795030486947   0.875000000000000   1.0000000
N2   N   0.051634622828540   0.775560088708764   0.375000000000000   1.0000000
N2   N   0.386381700758164   0.778093621936896   0.375000000000000   1.0000000
N2   N   0.226638860512591   0.279986096922967   0.375000000000000   1.0000000
N2   N   0.722360314870724   0.780611414289870   0.375000000000000   1.0000000
N2   N   0.554461406886706   0.266236338101324   0.375000000000000   1.0000000
N2   N   0.889987516392859   0.277424101373504   0.375000000000000   1.0000000
N2   N   0.055588931491855   0.444459168366290   0.875000000000000   1.0000000
N2   N   0.222252074248786   0.944462975643773   0.875000000000000   1.0000000
N2   N   0.555584238694638   0.944458786013983   0.875000000000000   1.0000000
N2   N   0.388918890134706   0.444458775579903   0.875000000000000   1.0000000
N2   N   0.888924797898996   0.944462248862780   0.875000000000000   1.0000000
N2   N   0.054944437312551   0.944264412267126   0.375000000000000   1.0000000
N2   N   0.722256415232427   0.444461918397984   0.875000000000000   1.0000000
N2   N   0.386381700758164   0.941621412154597   0.375000000000000   1.0000000
N2   N   0.223692331799623   0.445532863478404   0.375000000000000   1.0000000
N2   N   0.219475933982421   0.610800103323120   0.375000000000000   1.0000000
N2   N   0.723021764636260   0.945902873719256   0.375000000000000   1.0000000
N2   N   0.886447217743754   0.442643075211203   0.375000000000000   1.0000000
N2   N   0.055587574367912   0.611125867723313   0.875000000000000   1.0000000
N2   N   0.222252783263831   0.111128556776503   0.875000000000000   1.0000000
N2   N   0.722256415232427   0.611127830167778   0.875000000000000   1.0000000
N2   N   0.555584301558579   0.111125593647611   0.875000000000000   1.0000000
N2   N   0.888925810021494   0.111129571677411   0.875000000000000   1.0000000
B2   B   0.112217744082371   0.055888482149401   0.375000000000000   1.0000000
B2   B   0.606166652557258   0.565930065368985   0.375000000000000   1.0000000
B2   B   0.443160483812847   0.051563921386711   0.375000000000000   1.0000000
B2   B   0.940153916706817   0.553695623828454   0.375000000000000   1.0000000
B2   B   0.779656630752647   0.056494982042988   0.375000000000000   1.0000000
B2   B   0.111199360036085   0.722266346684711   0.875000000000000   1.0000000
B2   B   0.444445174107013   0.722182991581651   0.875000000000000   1.0000000
B2   B   0.277775938335354   0.222262094526089   0.875000000000000   1.0000000
B2   B   0.777787099530088   0.722270754982153   0.875000000000000   1.0000000
B2   B   0.611195787668617   0.222259171032526   0.875000000000000   1.0000000
B2   B   0.944450747962499   0.222183288936135   0.875000000000000   1.0000000
B2   B   0.275074359511886   0.721744040995729   0.375000000000000   1.0000000
B2   B   0.114937140553087   0.224135236943204   0.375000000000000   1.0000000
B2   B   0.443068646135349   0.214612061630102   0.375000000000000   1.0000000
B2   B   0.611856265874304   0.730101060692765   0.375000000000000   1.0000000
B2   B   0.940153916706817   0.719791626211699   0.375000000000000   1.0000000
B2   B   0.779042498932959   0.221255699711090   0.375000000000000   1.0000000
B2   B   0.111114910889779   0.888934301363482   0.875000000000000   1.0000000
B2   B   0.444529616361522   0.888931474847425   0.875000000000000   1.0000000
B2   B   0.277775938335354   0.388847177142600   0.875000000000000   1.0000000
B2   B   0.611117291892444   0.388927294387789   0.875000000000000   1.0000000
B2   B   0.777785224172900   0.888854368383164   0.875000000000000   1.0000000
B2   B   0.944536490012123   0.388931796416379   0.875000000000000   1.0000000
B2   B   0.112217744082371   0.389662595266306   0.375000000000000   1.0000000
B2   B   0.275074359511886   0.886663651849486   0.375000000000000   1.0000000
B2   B   0.611592545947434   0.891498450765508   0.375000000000000   1.0000000
B2   B   0.943895407608004   0.888907449970101   0.375000000000000   1.0000000
B2   B   0.775329409570133   0.386042531961214   0.375000000000000   1.0000000
B2   B   0.277858392691482   0.555594556132033   0.875000000000000   1.0000000
B2   B   0.111113466540831   0.055516959094579   0.875000000000000   1.0000000
B2   B   0.611117291892444   0.555523330837983   0.875000000000000   1.0000000
B2   B   0.444445174107013   0.055595515858697   0.875000000000000   1.0000000
B2   B   0.944453908453576   0.555599478676995   0.875000000000000   1.0000000
B2   B   0.108367671343505   0.554747768506295   0.375000000000000   1.0000000
B2   B   0.777868366114171   0.055600849723750   0.875000000000000   1.0000000
B2   B   0.276215751981195   0.052841973489141   0.375000000000000   1.0000000
B2   B   0.443068646135349   0.561789917838576   0.375000000000000   1.0000000
B2   B   0.770794590183733   0.552063961758538   0.375000000000000   1.0000000
B2   B   0.611592545947434   0.053427428515255   0.375000000000000   1.0000000
B2   B   0.444442981022113   0.555596881144535   0.875000000000000   1.0000000
B2   B   0.946559553184445   0.057067511725756   0.375000000000000   1.0000000
B2   B   0.277780492426318   0.722264629078909   0.875000000000000   1.0000000
B2   B   0.111197099748622   0.222265216540975   0.875000000000000   1.0000000
B2   B   0.444442981022113   0.222179433210921   0.875000000000000   1.0000000
B2   B   0.611195787668617   0.722269949969427   0.875000000000000   1.0000000
B2   B   0.944453908453576   0.722187763109910   0.875000000000000   1.0000000
B2   B   0.777785224172900   0.222264189123064   0.875000000000000   1.0000000
B2   B   0.107603036229819   0.720468184781574   0.375000000000000   1.0000000
B2   B   0.443160483812847   0.724929895759471   0.375000000000000   1.0000000
B2   B   0.282231681004274   0.224074435845666   0.375000000000000   1.0000000
B2   B   0.775329409570133   0.722620210942254   0.375000000000000   1.0000000
B2   B   0.611856265874304   0.215088538514875   0.375000000000000   1.0000000
B2   B   0.946559553184445   0.222825374792025   0.375000000000000   1.0000000
B2   B   0.111113466540831   0.388929840779580   0.875000000000000   1.0000000
B2   B   0.277780492426318   0.888849196680723   0.875000000000000   1.0000000
B2   B   0.611113897634659   0.888934178956750   0.875000000000000   1.0000000
B2   B   0.444518273757796   0.388925803545562   0.875000000000000   1.0000000
B2   B   0.944536490012123   0.888938026929066   0.875000000000000   1.0000000
B2   B   0.108367671343505   0.886953236170538   0.375000000000000   1.0000000
B2   B   0.777787099530088   0.388849677881257   0.875000000000000   1.0000000
B2   B   0.443205056879733   0.888269195106528   0.375000000000000   1.0000000
B2   B   0.282231681004274   0.391490578491951   0.375000000000000   1.0000000
B2   B   0.276215751981195   0.556707111825382   0.375000000000000   1.0000000
B2   B   0.606166652557258   0.373569920521602   0.375000000000000   1.0000000
B2   B   0.779042498932959   0.891120132555191   0.375000000000000   1.0000000
B2   B   0.943895407608004   0.388321290971230   0.375000000000000   1.0000000
B2   B   0.111114910889779   0.555513942859619   0.875000000000000   1.0000000
B2   B   0.277858392691482   0.055597169892785   0.875000000000000   1.0000000
B2   B   0.777870093358095   0.555601713345712   0.875000000000000   1.0000000
B2   B   0.611113897634659   0.055513052011238   0.875000000000000   1.0000000
B2   B   0.944450747962499   0.055600792359685   0.875000000000000   1.0000000
B2   B   0.055564673861606   0.111116490773107   0.124961744221329   1.0000000
B2   B   0.555513607439597   0.611142909777314   0.124188281593094   1.0000000
B2   B   0.388855707702106   0.111064603234912   0.124813294897626   1.0000000
B2   B   0.888862458615482   0.611097895974416   0.124898891819054   1.0000000
B2   B   0.722222580572183   0.111097797999493   0.124877935532546   1.0000000
B2   B   0.055527888047194   0.777762932852268   0.625038825442205   1.0000000
B2   B   0.388861703397065   0.777777576336078   0.625051172952114   1.0000000
B2   B   0.222226010717194   0.277779672025268   0.625188700542601   1.0000000
B2   B   0.722205771805379   0.777798578122433   0.625260091214406   1.0000000
B2   B   0.555513607439597   0.277704030995626   0.625811718406906   1.0000000
B2   B   0.888891412121756   0.277771219172632   0.625061938074647   1.0000000
B2   B   0.222189570585226   0.777761451959277   0.124949089939298   1.0000000
B2   B   0.055564673861606   0.277781516421820   0.124961744221329   1.0000000
B2   B   0.388814972874227   0.277695477217140   0.124399025112358   1.0000000
B2   B   0.555533543788447   0.777801701997319   0.124809890307941   1.0000000
B2   B   0.888872375503569   0.777779965132909   0.124923626306944   1.0000000
B2   B   0.722205771805379   0.277740527016282   0.124739908785594   1.0000000
B2   B   0.055542698622359   0.944438277045766   0.625014600633380   1.0000000
B2   B   0.388861703397065   0.944417460394309   0.625051172952114   1.0000000
B2   B   0.222206933894072   0.444440504744933   0.625110024376664   1.0000000
B2   B   0.555544910062805   0.444439121698067   0.626383593814897   1.0000000
B2   B   0.722222580572183   0.944458115906019   0.625122064467454   1.0000000
B2   B   0.888872375503569   0.444425743704010   0.625076373693056   1.0000000
B2   B   0.055542698622359   0.444437754909922   0.124985399366620   1.0000000
B2   B   0.222193810579850   0.944421388001092   0.124954545493348   1.0000000
B2   B   0.555541591961961   0.944437462647648   0.124931669901935   1.0000000
B2   B   0.388814972874227   0.444452828990422   0.124399025112358   1.0000000
B2   B   0.888891412121756   0.944453526282460   0.124938061925353   1.0000000
B2   B   0.722199710365466   0.444413122783346   0.124326776608088   1.0000000
B2   B   0.222193810579850   0.611105755912093   0.625045454506651   1.0000000
B2   B   0.055564673861606   0.111116490773107   0.625038255778671   1.0000000
B2   B   0.555513607439597   0.611142909777314   0.625811718406906   1.0000000
B2   B   0.388855707702106   0.111064603234912   0.625186705102374   1.0000000
B2   B   0.888862458615482   0.611097895974416   0.625101108180946   1.0000000
B2   B   0.055527888047194   0.611098288528262   0.124961174557795   1.0000000
B2   B   0.722222580572183   0.111097797999493   0.625122064467454   1.0000000
B2   B   0.222206933894072   0.111099762482475   0.124889975623344   1.0000000
B2   B   0.388855707702106   0.611124437800537   0.124813294897626   1.0000000
B2   B   0.722199710365466   0.611119920915456   0.124326776608088   1.0000000
B2   B   0.555533543788447   0.111065175124457   0.124809890307941   1.0000000
B2   B   0.388855707702106   0.611124437800537   0.625186705102374   1.0000000
B2   B   0.888901908671182   0.111117621002263   0.124933009131781   1.0000000
B2   B   0.222189570585226   0.777761451959277   0.625050910060702   1.0000000
B2   B   0.055564673861606   0.277781516421820   0.625038255778671   1.0000000
B2   B   0.388814972874227   0.277695477217140   0.625600974887635   1.0000000
B2   B   0.555533543788447   0.777801701997319   0.625190109692059   1.0000000
B2   B   0.888872375503569   0.777779965132909   0.625076373693056   1.0000000
B2   B   0.722205771805379   0.277740527016282   0.625260091214406   1.0000000
B2   B   0.055527888047194   0.777762932852268   0.124961174557795   1.0000000
B2   B   0.388861703397065   0.777777576336078   0.124948827047886   1.0000000
B2   B   0.222226010717194   0.277779672025268   0.124811299457399   1.0000000
B2   B   0.722205771805379   0.777798578122433   0.124739908785594   1.0000000
B2   B   0.555513607439597   0.277704030995626   0.124188281593094   1.0000000
B2   B   0.888891412121756   0.277771219172632   0.124938061925353   1.0000000
B2   B   0.055542698622359   0.444437754909922   0.625014600633380   1.0000000
B2   B   0.222193810579850   0.944421388001092   0.625045454506651   1.0000000
B2   B   0.555541591961961   0.944437462647648   0.625068330098065   1.0000000
B2   B   0.388814972874227   0.444452828990422   0.625600974887635   1.0000000
B2   B   0.888891412121756   0.944453526282460   0.625061938074647   1.0000000
B2   B   0.055542698622359   0.944438277045766   0.124985399366620   1.0000000
B2   B   0.722199710365466   0.444413122783346   0.625673223391912   1.0000000
B2   B   0.388861703397065   0.944417460394309   0.124948827047886   1.0000000
B2   B   0.222206933894072   0.444440504744933   0.124889975623344   1.0000000
B2   B   0.222193810579850   0.611105755912093   0.124954545493348   1.0000000
B2   B   0.555544910062805   0.444439121698067   0.123616406185103   1.0000000
B2   B   0.722222580572183   0.944458115906019   0.124877935532546   1.0000000
B2   B   0.888872375503569   0.444425743704010   0.124923626306944   1.0000000
B2   B   0.055527888047194   0.611098288528262   0.625038825442205   1.0000000
B2   B   0.222206933894072   0.111099762482475   0.625110024376664   1.0000000
B2   B   0.722199710365466   0.611119920915456   0.625673223391912   1.0000000
B2   B   0.555533543788447   0.111065175124457   0.625190109692059   1.0000000
B2   B   0.888901908671182   0.111117621002263   0.625066990868218   1.0000000


