data_1
_audit_creation_method   'vasp2cif'
_cell_length_a    17.52789999999977
_cell_length_b    17.52789999999977
_cell_length_c    15.0
_cell_angle_alpha    90.0
_cell_angle_beta    90.0
_cell_angle_gamma    119.99999999999916

_symmetry_space_group_name_H-M    'P 1'
loop_
_atom_site_label
_atom_site_type_symbol
_atom_site_fract_x
_atom_site_fract_y
_atom_site_fract_z
_atom_site_occupancy
Sb2   Sb   0.499713469610541   0.500287932306640   0.035575091578808   1.0000000
B2   B   0.905635471874766   0.952980817859597   0.107200669544371   1.0000000
B2   B   0.904567065329674   0.095434955866138   0.105036626078256   1.0000000
B2   B   0.904144413807729   0.238226497377190   0.107355929854397   1.0000000
B2   B   0.904120270737186   0.381017715003602   0.110617340057694   1.0000000
B2   B   0.905065084026532   0.523865798295886   0.113185554791241   1.0000000
B2   B   0.906404801476229   0.667075588998204   0.114973890012992   1.0000000
B2   B   0.906920245141313   0.810714508040969   0.113510799469775   1.0000000
B2   B   0.048157644190901   0.951844377004825   0.106254134012520   1.0000000
B2   B   0.047021203336497   0.094366549321400   0.107200669544374   1.0000000
B2   B   0.046655880971579   0.237402736974659   0.110211418048279   1.0000000
B2   B   0.046984904568336   0.380371505371973   0.111664082178599   1.0000000
B2   B   0.048060411681801   0.523185138720324   0.111934700024629   1.0000000
B2   B   0.048848950050819   0.666077121766512   0.110835041320016   1.0000000
B2   B   0.048825087561656   0.809069413114481   0.108775196879883   1.0000000
B2   B   0.190932608081338   0.951176933634285   0.108775196879879   1.0000000
B2   B   0.189287513155039   0.093081776054696   0.113510799469786   1.0000000
B2   B   0.188008002965852   0.235510115916547   0.119795822956939   1.0000000
B2   B   0.189181610649518   0.379384131750861   0.117562411288057   1.0000000
B2   B   0.191207691134466   0.522376237143368   0.113257290644340   1.0000000
B2   B   0.191982524168600   0.665382102012785   0.110777987689343   1.0000000
B2   B   0.191611193204807   0.808390827990996   0.108846485038706   1.0000000
B2   B   0.333924899430610   0.951153071145085   0.110835041320017   1.0000000
B2   B   0.332926432198788   0.093597219719699   0.114973890012991   1.0000000
B2   B   0.329925852166317   0.233848281823169   0.123934283218276   1.0000000
B2   B   0.329095920577224   0.377449926019903   0.118859457839243   1.0000000
B2   B   0.334840401119044   0.520098211502740   0.108882062254833   1.0000000
B2   B   0.335598243965926   0.664403777231145   0.110078748431168   1.0000000
B2   B   0.334619919184239   0.808019497027169   0.110777987689343   1.0000000
B2   B   0.476816882476710   0.951941609514403   0.111934700024629   1.0000000
B2   B   0.476136222901097   0.094936937169546   0.113185554791240   1.0000000
B2   B   0.475030009031610   0.237634841502604   0.113878675312034   1.0000000
B2   B   0.465304236250694   0.372476987284974   0.096964100774396   1.0000000
B2   B   0.479903809694238   0.665161620077736   0.108882062254832   1.0000000
B2   B   0.477625784053437   0.808794330061630   0.113257290644340   1.0000000
B2   B   0.619630515824539   0.953017116627487   0.111664082178599   1.0000000
B2   B   0.618984306192311   0.095881750459080   0.110617340057681   1.0000000
B2   B   0.618307488760336   0.239164544180985   0.111240854640275   1.0000000
B2   B   0.617032999658501   0.382969021537493   0.105104245544234   1.0000000
B2   B   0.627525033911002   0.534697784946107   0.096964100774435   1.0000000
B2   B   0.622552095176030   0.670906100619813   0.118859457839243   1.0000000
B2   B   0.620617889445442   0.810820410546385   0.117562411288057   1.0000000
B2   B   0.762599284221149   0.953346140224282   0.110211418048278   1.0000000
B2   B   0.761775523818884   0.095857607388189   0.107355929854397   1.0000000
B2   B   0.761282238932932   0.238719782263127   0.109224733757697   1.0000000
B2   B   0.760837477015021   0.381694532435520   0.111240854640276   1.0000000
B2   B   0.762367179693677   0.524972012165233   0.113878675312033   1.0000000
B2   B   0.766153739372952   0.670076169030501   0.123934283218277   1.0000000
B2   B   0.764491905279421   0.811994018229892   0.119795822956940   1.0000000
N2   N   0.953552115038911   0.905381037554745   0.107228894358872   1.0000000
N2   N   0.952259816572123   0.047741585346017   0.104158007821416   1.0000000
N2   N   0.951542292880779   0.190384900209835   0.106099717643493   1.0000000
N2   N   0.951533148831006   0.333239953888478   0.109417885288621   1.0000000
N2   N   0.952492453433300   0.476087773023153   0.111959121146195   1.0000000
N2   N   0.953657112405806   0.619040530687628   0.112823229057380   1.0000000
N2   N   0.954059491352342   0.762307585971447   0.112188638960587   1.0000000
N2   N   0.095915799097769   0.904085602820275   0.106698251956951   1.0000000
N2   N   0.094620364363454   0.046449286879046   0.107228894358865   1.0000000
N2   N   0.093328782883522   0.188786714158864   0.111690883562303   1.0000000
N2   N   0.093642191251657   0.332184473015983   0.113280271374547   1.0000000
N2   N   0.095228678311444   0.475440374096066   0.112698258579561   1.0000000
N2   N   0.096317840628785   0.618384972907889   0.111182035501245   1.0000000
N2   N   0.096399580427077   0.761263747254026   0.108856579552485   1.0000000
N2   N   0.238737654664072   0.903601821491064   0.108856579552485   1.0000000
N2   N   0.237693815946684   0.045941910565646   0.112188638960587   1.0000000
N2   N   0.235023639375219   0.186847468868007   0.121576409226838   1.0000000
N2   N   0.233772257009407   0.329397640911555   0.123693621303028   1.0000000
N2   N   0.237684011207960   0.474407961125383   0.115254103466681   1.0000000
N2   N   0.239401728816304   0.617819880392060   0.111375504609183   1.0000000
N2   N   0.239207728572341   0.760793673345621   0.109832544761582   1.0000000
N2   N   0.381616429009967   0.903683561289182   0.111182035501236   1.0000000
N2   N   0.380960871230163   0.046344289512134   0.112823229057380   1.0000000
N2   N   0.379626337355370   0.188105404822654   0.119095919032625   1.0000000
N2   N   0.375296589910238   0.327150710075311   0.123894534076882   1.0000000
N2   N   0.376138146685967   0.468542422814182   0.104948200973142   1.0000000
N2   N   0.382988646941266   0.617012754976736   0.107247982381433   1.0000000
N2   N   0.382181521525984   0.760599673101535   0.111375504609182   1.0000000
N2   N   0.524561027821209   0.904772723606579   0.112698258579561   1.0000000
N2   N   0.523913628893685   0.047508948484525   0.111959121146195   1.0000000
N2   N   0.523207383811509   0.190271091932580   0.113671038701314   1.0000000
N2   N   0.520947625927700   0.332563619361033   0.105211571918333   1.0000000
N2   N   0.531458979103141   0.623863255232207   0.104948200973134   1.0000000
N2   N   0.525593440791527   0.762317390709879   0.115254103466681   1.0000000
N2   N   0.667816928901225   0.906359210666255   0.113280271374554   1.0000000
N2   N   0.666761448028600   0.048468253087088   0.109417885288634   1.0000000
N2   N   0.666131103586054   0.191335870997082   0.110382896722058   1.0000000
N2   N   0.665256272354038   0.334745129562895   0.109767286304864   1.0000000
N2   N   0.667437782555823   0.479053775989273   0.105211571918340   1.0000000
N2   N   0.672850691841581   0.624704812007996   0.123894534076881   1.0000000
N2   N   0.670603761004970   0.766229144908314   0.123693621303032   1.0000000
N2   N   0.811214687759414   0.906672619034652   0.111690883562309   1.0000000
N2   N   0.809616501708137   0.048459109037349   0.106099717643493   1.0000000
N2   N   0.808954234965719   0.191047166952336   0.107217940944547   1.0000000
N2   N   0.808665530921019   0.333870298330897   0.110382896722058   1.0000000
N2   N   0.809730309985437   0.476794018105648   0.113671038701314   1.0000000
N2   N   0.811895997095437   0.620375064562542   0.119095919032625   1.0000000
N2   N   0.813153933049688   0.764977762542602   0.121576409226837   1.0000000


