data_1
_audit_creation_method   'vasp2cif'
_cell_length_a    17.52789999999977
_cell_length_b    17.52789999999977
_cell_length_c    15.0
_cell_angle_alpha    90.0
_cell_angle_beta    90.0
_cell_angle_gamma    119.99999999999916

_symmetry_space_group_name_H-M    'P 1'
loop_
_atom_site_label
_atom_site_type_symbol
_atom_site_fract_x
_atom_site_fract_y
_atom_site_fract_z
_atom_site_occupancy
B2   B   0.905411368460727   0.953171201828989   0.111015177089988   1.0000000
B2   B   0.905161802148917   0.095696159516064   0.111049911447018   1.0000000
B2   B   0.904871513529199   0.238540293892256   0.111068143384512   1.0000000
B2   B   0.903227219590173   0.381206506777476   0.110998116810712   1.0000000
B2   B   0.900386313275145   0.523391138659966   0.111007104132351   1.0000000
B2   B   0.904211138690170   0.666155424314188   0.111105078261937   1.0000000
B2   B   0.906603997176916   0.811046620985994   0.111051840544062   1.0000000
B2   B   0.048387629907654   0.953090570164673   0.111006265502745   1.0000000
B2   B   0.048427520647813   0.095998903424289   0.111012731227278   1.0000000
B2   B   0.048466685385666   0.238664749112789   0.111011299829584   1.0000000
B2   B   0.047924613656405   0.381060096497344   0.111021655181438   1.0000000
B2   B   0.046058873679957   0.523273655069544   0.111008056606605   1.0000000
B2   B   0.046775379355843   0.666012164711891   0.111021865787337   1.0000000
B2   B   0.047527517339508   0.809260138255669   0.110999486169806   1.0000000
B2   B   0.190161604665724   0.951871201309413   0.110998555338274   1.0000000
B2   B   0.190934232923456   0.095439965275610   0.111051691594126   1.0000000
B2   B   0.191821097710102   0.238882236549083   0.111022159403149   1.0000000
B2   B   0.192310686915559   0.381257718968311   0.111014434993911   1.0000000
B2   B   0.191213698737383   0.523480707959293   0.111072514154701   1.0000000
B2   B   0.189995747802487   0.666147143638045   0.111083984079754   1.0000000
B2   B   0.190084601495608   0.809041399410655   0.110994934863335   1.0000000
B2   B   0.333106683240341   0.951787570944228   0.111028497729918   1.0000000
B2   B   0.332452399887753   0.093523593988267   0.111089422034246   1.0000000
B2   B   0.333941620707947   0.236768530513364   0.111116792371109   1.0000000
B2   B   0.336924832466226   0.381226893733355   0.111084233154846   1.0000000
B2   B   0.336623909140326   0.524016880849924   0.111076329004802   1.0000000
B2   B   0.333018454454239   0.666248665368576   0.111110160183457   1.0000000
B2   B   0.333243101560826   0.809127215829282   0.111079916960160   1.0000000
B2   B   0.476298755861754   0.952064469921981   0.111017122068065   1.0000000
B2   B   0.476103830104251   0.094994830359832   0.110985571589247   1.0000000
B2   B   0.473853683915493   0.235293183923221   0.111080004268633   1.0000000
B2   B   0.475399131800176   0.664777568569540   0.110935036727060   1.0000000
B2   B   0.476425237304918   0.808770199741017   0.111035874861501   1.0000000
B2   B   0.619196947496133   0.952335916632033   0.111027406054818   1.0000000
B2   B   0.619215210714881   0.096094258962019   0.111003356522140   1.0000000
B2   B   0.618431729301126   0.239610569909899   0.111017442605289   1.0000000
B2   B   0.614619226495367   0.382395493271749   0.111069682223484   1.0000000
B2   B   0.621420697869113   0.666546813634969   0.110884668194095   1.0000000
B2   B   0.619155517983979   0.808781856943990   0.110936230466684   1.0000000
B2   B   0.762127697973004   0.952550127513903   0.111005828214062   1.0000000
B2   B   0.761998102863838   0.095688777703211   0.111060259982250   1.0000000
B2   B   0.761524275384859   0.239402003342213   0.111059033025348   1.0000000
B2   B   0.758940209111952   0.382115428707607   0.111017763309274   1.0000000
B2   B   0.752045603630407   0.524624472561079   0.111055372680115   1.0000000
B2   B   0.766134984451455   0.669616017997577   0.111038912924063   1.0000000
B2   B   0.762991912928240   0.810613234391776   0.110988789565728   1.0000000
C2   C   0.476922755219378   0.377861739470340   0.111100442321890   1.0000000
C2   C   0.482116989046024   0.522238189757374   0.110845791512264   1.0000000
C2   C   0.525532570589018   0.468146868657374   0.110947495744206   1.0000000
C2   C   0.522997629751487   0.612725980677836   0.110922937744304   1.0000000
N2   N   0.953653345314550   0.906156459651416   0.111003289304150   1.0000000
N2   N   0.953249152020291   0.048502976554275   0.111013333498028   1.0000000
N2   N   0.953085125717714   0.191105712613303   0.111034210687432   1.0000000
N2   N   0.952182391431693   0.333897611503718   0.111014484947305   1.0000000
N2   N   0.949958237779405   0.476220693865042   0.110955060649174   1.0000000
N2   N   0.951387041127571   0.618554406333745   0.111024537419930   1.0000000
N2   N   0.952639563681587   0.761874975879369   0.111051502622203   1.0000000
N2   N   0.095306449884624   0.904764616023742   0.110963925546247   1.0000000
N2   N   0.096073913540154   0.048424369772157   0.111003275261916   1.0000000
N2   N   0.096617271215249   0.191457805971668   0.110982712399732   1.0000000
N2   N   0.096726322952644   0.333927183325902   0.110985138986622   1.0000000
N2   N   0.095310832076411   0.476188769457892   0.111013924600236   1.0000000
N2   N   0.094614727674693   0.618490027847439   0.111017751481404   1.0000000
N2   N   0.094980810950643   0.761460162072323   0.110969901076335   1.0000000
N2   N   0.237894230076144   0.904378359442661   0.110977663751177   1.0000000
N2   N   0.237806777434308   0.047169834133749   0.111043620998048   1.0000000
N2   N   0.239347125783705   0.191234637302603   0.111039777082217   1.0000000
N2   N   0.241328497403752   0.334388364615634   0.111003671815245   1.0000000
N2   N   0.240606315182068   0.476158706867124   0.111052245283137   1.0000000
N2   N   0.238003234486483   0.618571606348820   0.111109074226599   1.0000000
N2   N   0.237852532348310   0.761491044041735   0.111037192492377   1.0000000
N2   N   0.380843430920048   0.904406600562620   0.111019125733451   1.0000000
N2   N   0.380787116372886   0.047064120124421   0.111021968249446   1.0000000
N2   N   0.379682963392973   0.188434284077871   0.111065984013635   1.0000000
N2   N   0.384321027995705   0.332773014011033   0.111148808915122   1.0000000
N2   N   0.387202836151258   0.476002099689272   0.111023721261044   1.0000000
N2   N   0.380609875413738   0.618325458572000   0.111010612879600   1.0000000
N2   N   0.380956664446950   0.761361430397294   0.111086971124790   1.0000000
N2   N   0.523794228896577   0.904213502590769   0.111031128376707   1.0000000
N2   N   0.523806889143238   0.047670197119086   0.110959531863941   1.0000000
N2   N   0.523002602255933   0.190147295260651   0.110967780666656   1.0000000
N2   N   0.518631030538072   0.329653139414599   0.111134954242216   1.0000000
N2   N   0.523582149180283   0.760710440323032   0.110913709863893   1.0000000
N2   N   0.666729892767981   0.904491197525632   0.110980693019534   1.0000000
N2   N   0.666648755747430   0.048015533207245   0.111013387288998   1.0000000
N2   N   0.666252936122323   0.191655346858059   0.111011249223739   1.0000000
N2   N   0.663712808580030   0.334579112037261   0.110997701394227   1.0000000
N2   N   0.651144033558576   0.474954759450145   0.110989879901116   1.0000000
N2   N   0.675479469073677   0.630151254798572   0.110895164194901   1.0000000
N2   N   0.668050615294408   0.762908505071970   0.110899758729844   1.0000000
N2   N   0.810374882651211   0.905776142345318   0.110984404752554   1.0000000
N2   N   0.809809899774862   0.048023345737664   0.111034996640348   1.0000000
N2   N   0.809412140444406   0.191321614096861   0.111064290956669   1.0000000
N2   N   0.807907825534470   0.334555658233301   0.111011261774452   1.0000000
N2   N   0.803368461004359   0.476952281877306   0.111007617210905   1.0000000
N2   N   0.809405072179475   0.619431663666077   0.111106411740649   1.0000000
N2   N   0.812303891238204   0.764900218253596   0.111026411180396   1.0000000


