data_1
_audit_creation_method   'vasp2cif'
_cell_length_a    17.52789999999977
_cell_length_b    17.52789999999977
_cell_length_c    15.0
_cell_angle_alpha    90.0
_cell_angle_beta    90.0
_cell_angle_gamma    119.99999999999916

_symmetry_space_group_name_H-M    'P 1'
loop_
_atom_site_label
_atom_site_type_symbol
_atom_site_fract_x
_atom_site_fract_y
_atom_site_fract_z
_atom_site_occupancy
B2   B   0.904353838927169   0.950821748810124   0.117486365390216   1.0000000
B2   B   0.905870577700466   0.094274642459853   0.119042514938641   1.0000000
B2   B   0.906363340301861   0.237250648805147   0.118390265945319   1.0000000
B2   B   0.906163182641792   0.380134598220788   0.116926664472242   1.0000000
B2   B   0.904477818757395   0.522815930861145   0.115065479736964   1.0000000
B2   B   0.902451220644364   0.664977287943848   0.113858541473913   1.0000000
B2   B   0.901913382557852   0.806721141287086   0.114931595076714   1.0000000
B2   B   0.047664361196187   0.952504108906650   0.118879244467729   1.0000000
B2   B   0.049336972804721   0.095810979750445   0.117549195001906   1.0000000
B2   B   0.049705119012727   0.238306107819771   0.114800849991009   1.0000000
B2   B   0.048966764167400   0.380929298678715   0.113237671279120   1.0000000
B2   B   0.047383801330662   0.523830873607070   0.114587563117035   1.0000000
B2   B   0.046398059351692   0.666597145944821   0.116683163654013   1.0000000
B2   B   0.046443030650013   0.809329405017845   0.118384519165613   1.0000000
B2   B   0.190834371043221   0.953714015986432   0.118185880631469   1.0000000
B2   B   0.193448235580364   0.098250778210607   0.114881584997265   1.0000000
B2   B   0.194196306876098   0.240509212281604   0.109465242578659   1.0000000
B2   B   0.192460057683396   0.382099366534360   0.104896151110446   1.0000000
B2   B   0.189660136058953   0.524725577267632   0.105589851798437   1.0000000
B2   B   0.189262988727399   0.667547610769437   0.111549624790471   1.0000000
B2   B   0.189745390748890   0.810410252922222   0.116885583208869   1.0000000
B2   B   0.333560561597767   0.953756464192797   0.115999277301830   1.0000000
B2   B   0.335191070321396   0.097700457273524   0.113356626113424   1.0000000
B2   B   0.340521440967663   0.245092092817964   0.106640654790486   1.0000000
B2   B   0.338647232001655   0.384174293204668   0.100130737953043   1.0000000
B2   B   0.331297270373745   0.526948616142332   0.095974321071598   1.0000000
B2   B   0.331441669933144   0.668687975596186   0.101790283460147   1.0000000
B2   B   0.332587815161531   0.810876206760930   0.111303980670179   1.0000000
B2   B   0.476315968932795   0.952760619449384   0.113791584376538   1.0000000
B2   B   0.477345867602224   0.095669112558223   0.114101834469259   1.0000000
B2   B   0.479168021506084   0.239425556960996   0.107805447624934   1.0000000
B2   B   0.493546291324452   0.393552609563911   0.100282263118429   1.0000000
B2   B   0.473187514862187   0.668818725651691   0.096180425759861   1.0000000
B2   B   0.475406292068566   0.810466454429413   0.105560231807331   1.0000000
B2   B   0.619216056640105   0.951179136206572   0.112832110571834   1.0000000
B2   B   0.620018470858224   0.093979265845928   0.116130317915220   1.0000000
B2   B   0.620881781032730   0.236299241234045   0.112426197726659   1.0000000
B2   B   0.622461306965027   0.377695750564822   0.105704566979059   1.0000000
B2   B   0.606629395927851   0.506622592536561   0.100353846349953   1.0000000
B2   B   0.615969080353334   0.661480186710513   0.100315818495139   1.0000000
B2   B   0.618044630359925   0.807676491665319   0.105068641577819   1.0000000
B2   B   0.761849630632171   0.950442995792256   0.114657545556965   1.0000000
B2   B   0.762898949029849   0.093786710904919   0.118089861758223   1.0000000
B2   B   0.763480317849582   0.236662311194358   0.117212810561136   1.0000000
B2   B   0.763854150064100   0.379269402999810   0.112873157655553   1.0000000
B2   B   0.760743968534808   0.520997087400011   0.108218386448682   1.0000000
B2   B   0.755073668911124   0.659640825937923   0.106757594949360   1.0000000
B2   B   0.759652589784868   0.805959725011906   0.109491631965919   1.0000000
N2   N   0.951421088902740   0.903039708109096   0.117896169002963   1.0000000
N2   N   0.953383876169162   0.046771502192863   0.119238949362110   1.0000000
N2   N   0.954239005841474   0.189882431223242   0.118499678200358   1.0000000
N2   N   0.954047798340133   0.332675311888244   0.117134139853884   1.0000000
N2   N   0.952651960974473   0.475532106606419   0.116555064729498   1.0000000
N2   N   0.951215103212866   0.618247452971447   0.115817494885211   1.0000000
N2   N   0.950726266058395   0.760555495904040   0.116229782944070   1.0000000
N2   N   0.095133149575084   0.905034889416178   0.119440590324317   1.0000000
N2   N   0.097131090177277   0.048751757171848   0.117934411791091   1.0000000
N2   N   0.098219804944249   0.191706794664879   0.114312720109419   1.0000000
N2   N   0.097403523476540   0.333820894199403   0.110966799118672   1.0000000
N2   N   0.095244619343012   0.476322185627169   0.111411192345500   1.0000000
N2   N   0.094356871096612   0.619219031653410   0.114921547666553   1.0000000
N2   N   0.094354479981686   0.762073193589315   0.118086049606050   1.0000000
N2   N   0.238082407418023   0.905803796820506   0.117743718770264   1.0000000
N2   N   0.239608051131624   0.049439443707845   0.115971589635365   1.0000000
N2   N   0.243194752907801   0.194772898499024   0.110123498069568   1.0000000
N2   N   0.242836558639437   0.336652831827716   0.103939079541014   1.0000000
N2   N   0.237589231133097   0.477365676348236   0.100511866838049   1.0000000
N2   N   0.236759042062773   0.620030689086822   0.105685326488130   1.0000000
N2   N   0.237323161142005   0.762815730758166   0.113454245851053   1.0000000
N2   N   0.380926124073391   0.905794543344616   0.114234938645581   1.0000000
N2   N   0.381906487219837   0.048934449380333   0.114938059460972   1.0000000
N2   N   0.383892607976635   0.193181298374407   0.108902050278740   1.0000000
N2   N   0.391665456506335   0.342796810281939   0.101586977518698   1.0000000
N2   N   0.382164471428679   0.481906899957440   0.095698279760572   1.0000000
N2   N   0.378800552867326   0.621326994123243   0.095376817363388   1.0000000
N2   N   0.380106477902823   0.763366674996296   0.105655404212495   1.0000000
N2   N   0.523823585794163   0.904893132423674   0.110985945134017   1.0000000
N2   N   0.524626633888080   0.047498224995794   0.115472935354461   1.0000000
N2   N   0.525687476803230   0.190376892568036   0.111403489536518   1.0000000
N2   N   0.528317250095937   0.333821798021764   0.103810791964603   1.0000000
N2   N   0.518226856262068   0.617957790120209   0.095904560817128   1.0000000
N2   N   0.522768014954299   0.762514674163491   0.100810965716637   1.0000000
N2   N   0.666322745102257   0.902729694521761   0.110872471543619   1.0000000
N2   N   0.667478723600421   0.046110468925836   0.116495218536535   1.0000000
N2   N   0.668288904880740   0.188720469227964   0.115893252197620   1.0000000
N2   N   0.669474122637601   0.330680963750237   0.110028701672676   1.0000000
N2   N   0.666351540855487   0.471845140104641   0.103964452283324   1.0000000
N2   N   0.657367845942117   0.608492112882510   0.101673131604275   1.0000000
N2   N   0.663484623854063   0.757295626092348   0.104129060262564   1.0000000
N2   N   0.808445497502464   0.901933215841663   0.114226138159996   1.0000000
N2   N   0.810260516494016   0.045908483181071   0.118309213817545   1.0000000
N2   N   0.811091108454032   0.189051177846857   0.118936176398867   1.0000000
N2   N   0.811418844128463   0.331861078085312   0.116425946175070   1.0000000
N2   N   0.809767047331235   0.474468251499708   0.112118751782327   1.0000000
N2   N   0.806978613731591   0.616257959182691   0.109233530616901   1.0000000
N2   N   0.805390048114015   0.756970667672534   0.110135257229470   1.0000000
C2   C   0.469808081141230   0.530310966168242   0.097821375361647   1.0000000


