data_1
_audit_creation_method   'vasp2cif'
_cell_length_a    14.93631414619966
_cell_length_b    14.936314146199727
_cell_length_c    13.341276283792837
_cell_angle_alpha    90.0
_cell_angle_beta    90.0
_cell_angle_gamma    119.99999999999984

_symmetry_space_group_name_H-M    'P 1'
loop_
_atom_site_label
_atom_site_type_symbol
_atom_site_fract_x
_atom_site_fract_y
_atom_site_fract_z
_atom_site_occupancy
C2   C   0.611814249713569   0.390151911235326   0.375000000000000   1.0000000
C2   C   0.445004328188428   0.390151911235326   0.375000000000000   1.0000000
C2   C   0.553045652499171   0.439424638331671   0.375000000000000   1.0000000
N2   N   0.111118756198331   0.055546311776883   0.125061488147196   1.0000000
N2   N   0.611104279736421   0.555541892806172   0.124538893654742   1.0000000
N2   N   0.444437347975114   0.055552771790392   0.125110123912375   1.0000000
N2   N   0.944444395893758   0.555541747366750   0.125043943505600   1.0000000
N2   N   0.777771251445954   0.055553839408571   0.124990173201747   1.0000000
N2   N   0.111105348253426   0.722205841938571   0.625029524469964   1.0000000
N2   N   0.444428953434997   0.722196899263107   0.624992078281876   1.0000000
N2   N   0.277796560332877   0.222238826474563   0.624701839800745   1.0000000
N2   N   0.777764332493545   0.722205199519502   0.624889192498349   1.0000000
N2   N   0.611108932808358   0.222238826474563   0.624701839800745   1.0000000
N2   N   0.944444022217521   0.222221377768378   0.625015360051775   1.0000000
N2   N   0.277767160351817   0.722205841938571   0.124970475530036   1.0000000
N2   N   0.111114968545205   0.222221714305748   0.125071284627457   1.0000000
N2   N   0.444456114930314   0.222245563193964   0.125359040844892   1.0000000
N2   N   0.611107533692628   0.722205199519502   0.125110807501650   1.0000000
N2   N   0.944434612494774   0.722196899263107   0.125007921718125   1.0000000
N2   N   0.777773412427214   0.222221714305748   0.125071284627457   1.0000000
N2   N   0.111107141008310   0.888873549719083   0.625016298973726   1.0000000
N2   N   0.444433075377446   0.888873549719083   0.625016298973726   1.0000000
N2   N   0.277771816375840   0.388884496849921   0.624752666536952   1.0000000
N2   N   0.611128385165019   0.388895210928165   0.625082055982252   1.0000000
N2   N   0.777773397768141   0.888880128869611   0.625015631231154   1.0000000
N2   N   0.944450760189033   0.388890179534534   0.624967716680593   1.0000000
N2   N   0.111106086012173   0.388890179534534   0.125032283319407   1.0000000
N2   N   0.277769305083657   0.888871943500643   0.124987012762617   1.0000000
N2   N   0.611098388783978   0.888871295363748   0.125000560035850   1.0000000
N2   N   0.444433492429818   0.388895210928165   0.124917944017748   1.0000000
N2   N   0.944439573246442   0.888871295363748   0.125000560035850   1.0000000
N2   N   0.777779347140752   0.388884496849921   0.125247333463048   1.0000000
N2   N   0.277764018139656   0.555541747366750   0.624956056494400   1.0000000
N2   N   0.111118756198331   0.055546311776883   0.624938511852804   1.0000000
N2   N   0.611104279736421   0.555541892806172   0.625461106345257   1.0000000
N2   N   0.444437347975114   0.055552771790392   0.624889876087624   1.0000000
N2   N   0.944444395893758   0.555541747366750   0.624956056494400   1.0000000
N2   N   0.111105828914545   0.555544991162420   0.124979831574381   1.0000000
N2   N   0.777771251445954   0.055553839408571   0.625009826798253   1.0000000
N2   N   0.277782090481942   0.055552771790392   0.125110123912375   1.0000000
N2   N   0.444416209775726   0.555522916832061   0.125159254327523   1.0000000
N2   N   0.777773373722999   0.555522916832061   0.125159254327523   1.0000000
N2   N   0.611094222245223   0.055546311776883   0.125061488147196   1.0000000
N2   N   0.444416209775726   0.555522916832061   0.624840745672477   1.0000000
N2   N   0.944449254629280   0.055553839408571   0.124990173201747   1.0000000
N2   N   0.277767160351817   0.722205841938571   0.625029524469964   1.0000000
N2   N   0.111114968545205   0.222221714305748   0.624928715372543   1.0000000
N2   N   0.444456114930314   0.222245563193964   0.624640959155108   1.0000000
N2   N   0.611107533692628   0.722205199519502   0.624889192498349   1.0000000
N2   N   0.944434612494774   0.722196899263107   0.624992078281876   1.0000000
N2   N   0.777773412427214   0.222221714305748   0.624928715372543   1.0000000
N2   N   0.111105348253426   0.722205841938571   0.124970475530036   1.0000000
N2   N   0.444428953434997   0.722196899263107   0.125007921718125   1.0000000
N2   N   0.277796560332877   0.222238826474563   0.125298160199254   1.0000000
N2   N   0.777764332493545   0.722205199519502   0.125110807501650   1.0000000
N2   N   0.611108932808358   0.222238826474563   0.125298160199254   1.0000000
N2   N   0.944444022217521   0.222221377768378   0.124984639948224   1.0000000
N2   N   0.111106086012173   0.388890179534534   0.624967716680593   1.0000000
N2   N   0.277769305083657   0.888871943500643   0.625012987237382   1.0000000
N2   N   0.611098388783978   0.888871295363748   0.624999439964150   1.0000000
N2   N   0.444433492429818   0.388895210928165   0.625082055982252   1.0000000
N2   N   0.944439573246442   0.888871295363748   0.624999439964150   1.0000000
N2   N   0.111107141008310   0.888873549719083   0.124983701026274   1.0000000
N2   N   0.777779347140752   0.388884496849921   0.624752666536952   1.0000000
N2   N   0.444433075377446   0.888873549719083   0.124983701026274   1.0000000
N2   N   0.277771816375840   0.388884496849921   0.125247333463048   1.0000000
N2   N   0.277764018139656   0.555541747366750   0.125043943505600   1.0000000
N2   N   0.611128385165019   0.388895210928165   0.124917944017748   1.0000000
N2   N   0.777773397768141   0.888880128869611   0.124984368768846   1.0000000
N2   N   0.944450760189033   0.388890179534534   0.125032283319407   1.0000000
N2   N   0.111105828914545   0.555544991162420   0.625020168425619   1.0000000
N2   N   0.277782090481942   0.055552771790392   0.624889876087624   1.0000000
N2   N   0.777773373722999   0.555522916832061   0.624840745672477   1.0000000
N2   N   0.611094222245223   0.055546311776883   0.624938511852804   1.0000000
N2   N   0.944449254629280   0.055553839408571   0.625009826798253   1.0000000
N2   N   0.055519543776318   0.110853892607339   0.375000000000000   1.0000000
N2   N   0.550310289416201   0.612803569029893   0.375000000000000   1.0000000
N2   N   0.390862106912643   0.115057547158629   0.375000000000000   1.0000000
N2   N   0.887909540360043   0.609476923378542   0.375000000000000   1.0000000
N2   N   0.722001015497686   0.110853892607339   0.375000000000000   1.0000000
N2   N   0.055570004653057   0.777801558499970   0.875000000000000   1.0000000
N2   N   0.388898220513577   0.777801558499970   0.875000000000000   1.0000000
N2   N   0.222228537722749   0.277798707824094   0.875000000000000   1.0000000
N2   N   0.722235294736599   0.777803922806537   0.875000000000000   1.0000000
N2   N   0.555564498509602   0.277796974510128   0.875000000000000   1.0000000
N2   N   0.888900677463897   0.277798970886399   0.875000000000000   1.0000000
N2   N   0.222408738558275   0.778150810449884   0.375000000000000   1.0000000
N2   N   0.055340785326149   0.277412488594368   0.375000000000000   1.0000000
N2   N   0.391585848850122   0.283503958953499   0.375000000000000   1.0000000
N2   N   0.555143739752746   0.777055632427905   0.375000000000000   1.0000000
N2   N   0.888578559341823   0.777055632427905   0.375000000000000   1.0000000
N2   N   0.722276088341885   0.277244076144410   0.375000000000000   1.0000000
N2   N   0.055562385741642   0.944463591950051   0.875000000000000   1.0000000
N2   N   0.388901829827306   0.944466051491716   0.875000000000000   1.0000000
N2   N   0.222233875103143   0.444465823633602   0.875000000000000   1.0000000
N2   N   0.555569114155090   0.444471561643508   0.875000000000000   1.0000000
N2   N   0.722230970226697   0.944465563794365   0.875000000000000   1.0000000
N2   N   0.888898615197124   0.444465823633602   0.875000000000000   1.0000000
N2   N   0.055333322142253   0.443999977617834   0.375000000000000   1.0000000
N2   N   0.223129574457280   0.945836091665782   0.375000000000000   1.0000000
N2   N   0.555446372712333   0.944758500099100   0.375000000000000   1.0000000
N2   N   0.390055743486251   0.440481646164499   0.375000000000000   1.0000000
N2   N   0.888865975591462   0.944164737448973   0.375000000000000   1.0000000
N2   N   0.717092569344913   0.440481646164499   0.375000000000000   1.0000000
N2   N   0.222234051433201   0.611130328493913   0.875000000000000   1.0000000
N2   N   0.055564576608150   0.111127569763548   0.875000000000000   1.0000000
N2   N   0.555562304265151   0.611130442887331   0.875000000000000   1.0000000
N2   N   0.388896749355114   0.111126832043571   0.875000000000000   1.0000000
N2   N   0.888902455738116   0.611138329157972   0.875000000000000   1.0000000
N2   N   0.055255499934671   0.610738056226080   0.375000000000000   1.0000000
N2   N   0.722229659822061   0.111127569763548   0.875000000000000   1.0000000
N2   N   0.223784817958934   0.112963891669602   0.375000000000000   1.0000000
N2   N   0.388234049685158   0.609476923378542   0.375000000000000   1.0000000
N2   N   0.729159946280356   0.612803569029893   0.375000000000000   1.0000000
N2   N   0.555845740377332   0.112963891669602   0.375000000000000   1.0000000
N2   N   0.388902540086512   0.611138329157972   0.875000000000000   1.0000000
N2   N   0.888700745283219   0.110734823899781   0.375000000000000   1.0000000
N2   N   0.222233259478956   0.777799852291248   0.875000000000000   1.0000000
N2   N   0.055564960089166   0.277798970886399   0.875000000000000   1.0000000
N2   N   0.388899142667190   0.277796974510128   0.875000000000000   1.0000000
N2   N   0.555568307040530   0.777797545967317   0.875000000000000   1.0000000
N2   N   0.888895905593451   0.777797545967317   0.875000000000000   1.0000000
N2   N   0.722236836768009   0.277798707824094   0.875000000000000   1.0000000
N2   N   0.055413615010230   0.777661572020411   0.375000000000000   1.0000000
N2   N   0.388914623676846   0.777661572020411   0.375000000000000   1.0000000
N2   N   0.221634654469189   0.277244076144410   0.375000000000000   1.0000000
N2   N   0.722314603850152   0.777962541033642   0.375000000000000   1.0000000
N2   N   0.558584776770041   0.283503958953499   0.375000000000000   1.0000000
N2   N   0.888738369934883   0.277412488594368   0.375000000000000   1.0000000
N2   N   0.055569268707840   0.444471870749009   0.875000000000000   1.0000000
N2   N   0.222230888331074   0.944466051491716   0.875000000000000   1.0000000
N2   N   0.555567872875080   0.944463591950051   0.875000000000000   1.0000000
N2   N   0.388902364324897   0.444463822694776   0.875000000000000   1.0000000
N2   N   0.888901260234333   0.944465563794365   0.875000000000000   1.0000000
N2   N   0.055978794053438   0.944758500099100   0.375000000000000   1.0000000
N2   N   0.722228125036543   0.444463822694776   0.875000000000000   1.0000000
N2   N   0.389373183875166   0.945836091665782   0.375000000000000   1.0000000
N2   N   0.222868407753091   0.443631277871242   0.375000000000000   1.0000000
N2   N   0.222149222958073   0.610738056226080   0.375000000000000   1.0000000
N2   N   0.721965428524177   0.944164737448973   0.375000000000000   1.0000000
N2   N   0.887429536784815   0.443631277871242   0.375000000000000   1.0000000
N2   N   0.055562943727376   0.611130328493913   0.875000000000000   1.0000000
N2   N   0.222232125449086   0.111131201636616   0.875000000000000   1.0000000
N2   N   0.722234805288845   0.611130442887331   0.875000000000000   1.0000000
N2   N   0.555565742854194   0.111131201636616   0.875000000000000   1.0000000
N2   N   0.888897368953730   0.111128071240803   0.875000000000000   1.0000000
B2   B   0.111413276344227   0.055859080907291   0.375000000000000   1.0000000
B2   B   0.444821378696420   0.056963326568230   0.375000000000000   1.0000000
B2   B   0.944303436015975   0.554983341143932   0.375000000000000   1.0000000
B2   B   0.777597302351102   0.055082964793368   0.375000000000000   1.0000000
B2   B   0.110922498390014   0.722146728094995   0.875000000000000   1.0000000
B2   B   0.444560073281596   0.722446025685427   0.875000000000000   1.0000000
B2   B   0.277869543318158   0.222135413737809   0.875000000000000   1.0000000
B2   B   0.777885654505509   0.722140709487698   0.875000000000000   1.0000000
B2   B   0.610932537086323   0.222135413737809   0.875000000000000   1.0000000
B2   B   0.944547835992998   0.222429005319331   0.875000000000000   1.0000000
B2   B   0.277780764737075   0.722232893294138   0.375000000000000   1.0000000
B2   B   0.109842777985475   0.221338562549907   0.375000000000000   1.0000000
B2   B   0.446226248343880   0.225785830021096   0.375000000000000   1.0000000
B2   B   0.612412672036848   0.722397352633767   0.375000000000000   1.0000000
B2   B   0.943980566303126   0.721495260789530   0.375000000000000   1.0000000
B2   B   0.778162451231103   0.221338562549907   0.375000000000000   1.0000000
B2   B   0.111211197262297   0.888798556994888   0.875000000000000   1.0000000
B2   B   0.444254026399263   0.888798556994888   0.875000000000000   1.0000000
B2   B   0.277884726929286   0.389108616438315   0.875000000000000   1.0000000
B2   B   0.611216829811804   0.388845008500328   0.875000000000000   1.0000000
B2   B   0.777883370040413   0.889100073414153   0.875000000000000   1.0000000
B2   B   0.944262516354837   0.388812763107552   0.875000000000000   1.0000000
B2   B   0.110964529477841   0.388374798268373   0.375000000000000   1.0000000
B2   B   0.278078405592212   0.889490144517753   0.375000000000000   1.0000000
B2   B   0.610915285741204   0.888682759705465   0.375000000000000   1.0000000
B2   B   0.944434140630933   0.888682759705465   0.375000000000000   1.0000000
B2   B   0.776937694296636   0.386903670699654   0.375000000000000   1.0000000
B2   B   0.277598682301519   0.555495005622376   0.875000000000000   1.0000000
B2   B   0.111198418701745   0.055755229386304   0.875000000000000   1.0000000
B2   B   0.611220649571072   0.555774632475469   0.875000000000000   1.0000000
B2   B   0.444540542369802   0.055458345970560   0.875000000000000   1.0000000
B2   B   0.944562989987522   0.555495005622376   0.875000000000000   1.0000000
B2   B   0.110964503096770   0.555262339526869   0.375000000000000   1.0000000
B2   B   0.777585560807526   0.055458608565043   0.875000000000000   1.0000000
B2   B   0.278808614538474   0.056963326568230   0.375000000000000   1.0000000
B2   B   0.443587826640037   0.553322477234928   0.375000000000000   1.0000000
B2   B   0.776401317261554   0.553322477234928   0.375000000000000   1.0000000
B2   B   0.611112471229735   0.055859080907291   0.375000000000000   1.0000000
B2   B   0.444579576935293   0.555503959309823   0.875000000000000   1.0000000
B2   B   0.944152329108931   0.055082964793368   0.375000000000000   1.0000000
B2   B   0.277890896371653   0.722146728094995   0.875000000000000   1.0000000
B2   B   0.110911925737762   0.222135613502617   0.875000000000000   1.0000000
B2   B   0.444541922274546   0.222417177882427   0.875000000000000   1.0000000
B2   B   0.610921721648861   0.722140709487698   0.875000000000000   1.0000000
B2   B   0.944552619070496   0.722446025685427   0.875000000000000   1.0000000
B2   B   0.777890354431526   0.222135613502617   0.875000000000000   1.0000000
B2   B   0.111118795223733   0.722232893294138   0.375000000000000   1.0000000
B2   B   0.444181361153069   0.721495260789530   0.375000000000000   1.0000000
B2   B   0.277204913108466   0.223250870935942   0.375000000000000   1.0000000
B2   B   0.776651347263592   0.722397352633767   0.375000000000000   1.0000000
B2   B   0.612712624494148   0.223250870935942   0.375000000000000   1.0000000
B2   B   0.944167685419406   0.221668704172148   0.375000000000000   1.0000000
B2   B   0.111216913419387   0.388812763107552   0.875000000000000   1.0000000
B2   B   0.277881452116628   0.889096237566584   0.875000000000000   1.0000000
B2   B   0.611223412383302   0.888800463157472   0.875000000000000   1.0000000
B2   B   0.444294845355195   0.388845008500328   0.875000000000000   1.0000000
B2   B   0.944243717440842   0.888800463157472   0.875000000000000   1.0000000
B2   B   0.111433399554107   0.889133369371850   0.375000000000000   1.0000000
B2   B   0.777890556175699   0.389108616438315   0.875000000000000   1.0000000
B2   B   0.444366636484414   0.889133369371850   0.375000000000000   1.0000000
B2   B   0.276632643069690   0.386903670699654   0.375000000000000   1.0000000
B2   B   0.277346571794621   0.554983341143932   0.375000000000000   1.0000000
B2   B   0.777862001797818   0.889057336928964   0.375000000000000   1.0000000
B2   B   0.944076935457204   0.388374798268373   0.375000000000000   1.0000000
B2   B   0.111223700038504   0.555780733410336   0.875000000000000   1.0000000
B2   B   0.277584470267423   0.055458345970560   0.875000000000000   1.0000000
B2   B   0.777591049041194   0.555503959309823   0.875000000000000   1.0000000
B2   B   0.611223477351229   0.055755229386304   0.875000000000000   1.0000000
B2   B   0.944539714424181   0.055458608565043   0.875000000000000   1.0000000
B2   B   0.055495072800685   0.111055080719962   0.125044872568027   1.0000000
B2   B   0.555640037034370   0.611137214093203   0.125283339727198   1.0000000
B2   B   0.388829715978541   0.110992765290424   0.125083702265966   1.0000000
B2   B   0.888923747306893   0.611148692405154   0.125139142080795   1.0000000
B2   B   0.722226674585941   0.111055080719962   0.125044872568027   1.0000000
B2   B   0.055537435696510   0.777738239689585   0.624935359215083   1.0000000
B2   B   0.388867470659740   0.777738239689585   0.624935359215083   1.0000000
B2   B   0.222135606416172   0.277771729548334   0.624961597436733   1.0000000
B2   B   0.722208883306590   0.777751099946517   0.624822205077596   1.0000000
B2   B   0.555622824797805   0.277834409587374   0.625323560385749   1.0000000
B2   B   0.888931056504276   0.277786736732178   0.624968850808264   1.0000000
B2   B   0.222199153087443   0.777731639508220   0.125122458661210   1.0000000
B2   B   0.055522346894567   0.277786736732178   0.125031149191735   1.0000000
B2   B   0.388878251456233   0.277834409587374   0.124676439614251   1.0000000
B2   B   0.555560583114743   0.777744249984177   0.125118266864857   1.0000000
B2   B   0.888850333536098   0.777744249984177   0.125118266864857   1.0000000
B2   B   0.722302789798825   0.277771729548334   0.125038402563267   1.0000000
B2   B   0.055503543113257   0.944364546985559   0.624880700494413   1.0000000
B2   B   0.388839337600547   0.944333658821212   0.624943399708053   1.0000000
B2   B   0.222173353893070   0.444502952458318   0.624954241800050   1.0000000
B2   B   0.555668862039959   0.444671057413247   0.625150905638769   1.0000000
B2   B   0.722208608732869   0.944403592326026   0.624940559140875   1.0000000
B2   B   0.888996265231912   0.444502952458318   0.624954241800050   1.0000000
B2   B   0.055577733470410   0.444488800274148   0.125102505479907   1.0000000
B2   B   0.222160987887330   0.944333658821212   0.125056600291946   1.0000000
B2   B   0.555527670538973   0.944364546985559   0.125119299505588   1.0000000
B2   B   0.388910603235068   0.444547607385133   0.124721673563813   1.0000000
B2   B   0.888861650259819   0.944403592326026   0.125059440859125   1.0000000
B2   B   0.722303670816730   0.444547607385133   0.124721673563813   1.0000000
B2   B   0.222212253232266   0.611136288494334   0.624945196859291   1.0000000
B2   B   0.055495072800685   0.111055080719962   0.624955127431973   1.0000000
B2   B   0.555640037034370   0.611137214093203   0.624716660272802   1.0000000
B2   B   0.388829715978541   0.110992765290424   0.624916297734035   1.0000000
B2   B   0.888923747306893   0.611148692405154   0.624860857919205   1.0000000
B2   B   0.055590701928732   0.611136288494334   0.125054803140710   1.0000000
B2   B   0.722226674585941   0.111055080719962   0.624955127431973   1.0000000
B2   B   0.222139458036650   0.111006299706293   0.125049533647312   1.0000000
B2   B   0.388891611764919   0.611148692405154   0.125139142080795   1.0000000
B2   B   0.722163843725498   0.611137214093203   0.125283339727198   1.0000000
B2   B   0.555533508336306   0.111006299706293   0.125049533647312   1.0000000
B2   B   0.388891611764919   0.611148692405154   0.624860857919205   1.0000000
B2   B   0.888874805850636   0.111082945034617   0.125102454832627   1.0000000
B2   B   0.222199153087443   0.777731639508220   0.624877541338791   1.0000000
B2   B   0.055522346894567   0.277786736732178   0.624968850808264   1.0000000
B2   B   0.388878251456233   0.277834409587374   0.625323560385749   1.0000000
B2   B   0.555560583114743   0.777744249984177   0.624881733135143   1.0000000
B2   B   0.888850333536098   0.777744249984177   0.624881733135143   1.0000000
B2   B   0.722302789798825   0.277771729548334   0.624961597436733   1.0000000
B2   B   0.055537435696510   0.777738239689585   0.125064640784916   1.0000000
B2   B   0.388867470659740   0.777738239689585   0.125064640784916   1.0000000
B2   B   0.222135606416172   0.277771729548334   0.125038402563267   1.0000000
B2   B   0.722208883306590   0.777751099946517   0.125177794922404   1.0000000
B2   B   0.555622824797805   0.277834409587374   0.124676439614251   1.0000000
B2   B   0.888931056504276   0.277786736732178   0.125031149191735   1.0000000
B2   B   0.055577733470410   0.444488800274148   0.624897494520093   1.0000000
B2   B   0.222160987887330   0.944333658821212   0.624943399708053   1.0000000
B2   B   0.555527670538973   0.944364546985559   0.624880700494413   1.0000000
B2   B   0.388910603235068   0.444547607385133   0.625278326436187   1.0000000
B2   B   0.888861650259819   0.944403592326026   0.624940559140875   1.0000000
B2   B   0.055503543113257   0.944364546985559   0.125119299505588   1.0000000
B2   B   0.722303670816730   0.444547607385133   0.625278326436187   1.0000000
B2   B   0.388839337600547   0.944333658821212   0.125056600291946   1.0000000
B2   B   0.222173353893070   0.444502952458318   0.125045758199950   1.0000000
B2   B   0.222212253232266   0.611136288494334   0.125054803140710   1.0000000
B2   B   0.555668862039959   0.444671057413247   0.124849094361231   1.0000000
B2   B   0.722208608732869   0.944403592326026   0.125059440859125   1.0000000
B2   B   0.888996265231912   0.444502952458318   0.125045758199950   1.0000000
B2   B   0.055590701928732   0.611136288494334   0.624945196859291   1.0000000
B2   B   0.222139458036650   0.111006299706293   0.624950466352688   1.0000000
B2   B   0.722163843725498   0.611137214093203   0.624716660272802   1.0000000
B2   B   0.555533508336306   0.111006299706293   0.624950466352688   1.0000000
B2   B   0.888874805850636   0.111082945034617   0.624897545167373   1.0000000


