data_1
_audit_creation_method   'vasp2cif'
_cell_length_a    14.93631414619966
_cell_length_b    14.936314146199727
_cell_length_c    13.341276283792837
_cell_angle_alpha    90.0
_cell_angle_beta    90.0
_cell_angle_gamma    119.99999999999984

_symmetry_space_group_name_H-M    'P 1'
loop_
_atom_site_label
_atom_site_type_symbol
_atom_site_fract_x
_atom_site_fract_y
_atom_site_fract_z
_atom_site_occupancy
Sn2   Sn   0.497432609971322   0.415382971652130   0.375000000000000   1.0000000
N2   N   0.111228275840266   0.055610745271104   0.126089544901216   1.0000000
N2   N   0.611451609230374   0.555921174489914   0.124456117218316   1.0000000
N2   N   0.444638563373796   0.055646750969860   0.126221890555908   1.0000000
N2   N   0.944604976604076   0.555621935904334   0.127283881847200   1.0000000
N2   N   0.777975640816849   0.055654487074654   0.125135456453469   1.0000000
N2   N   0.111267922055081   0.722300627694275   0.623759699449307   1.0000000
N2   N   0.444638563373796   0.722325145736890   0.623778109444432   1.0000000
N2   N   0.277801305976801   0.222218723577242   0.624325843801900   1.0000000
N2   N   0.777985486950358   0.722397345276406   0.623289629948925   1.0000000
N2   N   0.611329716244114   0.222255787645885   0.623817024907672   1.0000000
N2   N   0.944598759452735   0.222290092478521   0.624618936010565   1.0000000
N2   N   0.277949465704059   0.722302614972148   0.125631760689876   1.0000000
N2   N   0.111196692502169   0.222265012917663   0.125807046594095   1.0000000
N2   N   0.444641520893910   0.222326664289503   0.126101010925824   1.0000000
N2   N   0.611329716244113   0.722407261931955   0.126182975092339   1.0000000
N2   N   0.944604976604076   0.722316374032615   0.127283881847200   1.0000000
N2   N   0.777976532118449   0.222269523917198   0.125859341210430   1.0000000
N2   N   0.111268847686366   0.888975941784194   0.623746437696322   1.0000000
N2   N   0.444630929683421   0.888982131508620   0.624391815604321   1.0000000
N2   N   0.277801305976801   0.388915915732569   0.624325843801903   1.0000000
N2   N   0.611451609230374   0.388863768074378   0.625543882782003   1.0000000
N2   N   0.777976532118449   0.889040341534924   0.624140658789985   1.0000000
N2   N   0.944609905899035   0.388948328883050   0.623575188814455   1.0000000
N2   N   0.111228275840261   0.388950863902337   0.126089544901216   1.0000000
N2   N   0.277949465704059   0.888980184065026   0.125631760689875   1.0000000
N2   N   0.611307704000467   0.889012900032692   0.125788775824762   1.0000000
N2   N   0.444207695148173   0.388770514240605   0.123739371498998   1.0000000
N2   N   0.944609905899035   0.888994910348632   0.126424811185625   1.0000000
N2   N   0.777985486950358   0.388921475007839   0.126710370051037   1.0000000
N2   N   0.277952685589870   0.555636276588263   0.623718143574330   1.0000000
N2   N   0.111228275840261   0.055610745271102   0.623910455099080   1.0000000
N2   N   0.611451609230374   0.555921174489907   0.625543882782003   1.0000000
N2   N   0.444638563373796   0.055646750969857   0.623778109444432   1.0000000
N2   N   0.944604976604076   0.555621935904334   0.622716118152509   1.0000000
N2   N   0.111268847686363   0.555626239235027   0.126253562303581   1.0000000
N2   N   0.777975640816849   0.055654487074654   0.624864543546700   1.0000000
N2   N   0.277952685589870   0.055649742334950   0.126281856425818   1.0000000
N2   N   0.444641520893910   0.555648189937674   0.126101010925831   1.0000000
N2   N   0.777962683105359   0.555648008218920   0.127066231714561   1.0000000
N2   N   0.611307704000467   0.055628137301243   0.125788775824759   1.0000000
N2   N   0.444641520893910   0.555648189937674   0.623898989074340   1.0000000
N2   N   0.944598759452735   0.055642000306600   0.125381063989322   1.0000000
N2   N   0.277949465704059   0.722302614972148   0.624368239310039   1.0000000
N2   N   0.111196692502169   0.222265012917663   0.624192953405855   1.0000000
N2   N   0.444641520893915   0.222326664289495   0.623898989074337   1.0000000
N2   N   0.611329716244114   0.722407261931955   0.623817024907668   1.0000000
N2   N   0.944604976604076   0.722316374032615   0.622716118152509   1.0000000
N2   N   0.777976532118449   0.222269523917197   0.624140658789985   1.0000000
N2   N   0.111267922055081   0.722300627694275   0.126240300550339   1.0000000
N2   N   0.444638563373796   0.722325145736890   0.126221890555900   1.0000000
N2   N   0.277801305976800   0.222218723577242   0.125674156198179   1.0000000
N2   N   0.777985486950358   0.722397345276406   0.126710370051018   1.0000000
N2   N   0.611329716244114   0.222255787645905   0.126182975092339   1.0000000
N2   N   0.944598759452735   0.222290092478521   0.125381063989322   1.0000000
N2   N   0.111228275840261   0.388950863902337   0.623910455099080   1.0000000
N2   N   0.277949465704053   0.888980184065026   0.624368239310032   1.0000000
N2   N   0.611307704000467   0.889012900032692   0.624211224175657   1.0000000
N2   N   0.444207695148170   0.388770514240605   0.626260628501338   1.0000000
N2   N   0.944609905899035   0.888994910348632   0.623575188814455   1.0000000
N2   N   0.111268847686356   0.888975941784194   0.126253562303581   1.0000000
N2   N   0.777985486950358   0.388921475007839   0.623289629948922   1.0000000
N2   N   0.444630929683421   0.888982131508620   0.125608184395888   1.0000000
N2   N   0.277801305976801   0.388915915732584   0.125674156198177   1.0000000
N2   N   0.277952685589870   0.555636276588263   0.126281856425819   1.0000000
N2   N   0.611451609230374   0.388863768074400   0.124456117218331   1.0000000
N2   N   0.777976532118449   0.889040341534922   0.125859341210430   1.0000000
N2   N   0.944609905899035   0.388948328883050   0.126424811185625   1.0000000
N2   N   0.111268847686366   0.555626239235027   0.623746437696322   1.0000000
N2   N   0.277952685589870   0.055649742334951   0.623718143574332   1.0000000
N2   N   0.777962683105350   0.555648008218924   0.622933768285424   1.0000000
N2   N   0.611307704000467   0.055628137301244   0.624211224175657   1.0000000
N2   N   0.944598759452735   0.055642000306600   0.624618936010565   1.0000000
N2   N   0.058630428545915   0.112767022214107   0.375000000000000   1.0000000
N2   N   0.555979996528884   0.621130102332517   0.375000000000000   1.0000000
N2   N   0.387922992034722   0.103672770920141   0.375000000000000   1.0000000
N2   N   0.888099978609427   0.610716655971983   0.375000000000000   1.0000000
N2   N   0.724721158218364   0.111432514119420   0.375000000000000   1.0000000
N2   N   0.054994747363751   0.777495544207381   0.875000000000000   1.0000000
N2   N   0.388314024862504   0.777497170805783   0.875000000000000   1.0000000
N2   N   0.221668409167138   0.277500871250061   0.875000000000000   1.0000000
N2   N   0.721648355323642   0.777475149475622   0.875000000000000   1.0000000
N2   N   0.554969552503901   0.277480380246427   0.875000000000000   1.0000000
N2   N   0.888323145359656   0.277506040422390   0.875000000000000   1.0000000
N2   N   0.221144508291557   0.777238920812811   0.375000000000000   1.0000000
N2   N   0.058630428545915   0.279196739665151   0.375000000000000   1.0000000
N2   N   0.388474324381113   0.265631687691895   0.375000000000000   1.0000000
N2   N   0.556536106500202   0.782663742350778   0.375000000000000   1.0000000
N2   N   0.890021482160701   0.778996088855873   0.375000000000000   1.0000000
N2   N   0.724504413852209   0.276569807812869   0.375000000000000   1.0000000
N2   N   0.054989871854953   0.944154066568876   0.875000000000000   1.0000000
N2   N   0.388314024862501   0.944150187389911   0.875000000000000   1.0000000
N2   N   0.221656263497372   0.444169484030373   0.875000000000000   1.0000000
N2   N   0.554985692708142   0.444159513020735   0.875000000000000   1.0000000
N2   N   0.721645540395324   0.944148881576065   0.875000000000000   1.0000000
N2   N   0.888330856301269   0.444175590032113   0.875000000000000   1.0000000
N2   N   0.056307482019390   0.445229611819755   0.375000000000000   1.0000000
N2   N   0.221216313888589   0.942155446490102   0.375000000000000   1.0000000
N2   N   0.556681252883125   0.945007293108074   0.375000000000000   1.0000000
N2   N   0.388474324381086   0.456175970022621   0.375000000000000   1.0000000
N2   N   0.891491351269938   0.946492987973563   0.375000000000000   1.0000000
N2   N   0.723827730945963   0.443370323020586   0.375000000000000   1.0000000
N2   N   0.221645438559428   0.610831123787407   0.875000000000000   1.0000000
N2   N   0.054996752630459   0.110826322752735   0.875000000000000   1.0000000
N2   N   0.554969552503901   0.610822505591171   0.875000000000000   1.0000000
N2   N   0.388308670668224   0.110804682836043   0.875000000000000   1.0000000
N2   N   0.888347677280393   0.610840505306553   0.875000000000000   1.0000000
N2   N   0.054759675769619   0.611059669449892   0.375000000000000   1.0000000
N2   N   0.721645540395324   0.110829992152491   0.875000000000000   1.0000000
N2   N   0.222614715959552   0.109140190740660   0.375000000000000   1.0000000
N2   N   0.387922992034722   0.617583554448248   0.375000000000000   1.0000000
N2   N   0.723827730945968   0.613790741258550   0.375000000000000   1.0000000
N2   N   0.556536106500191   0.107205697482617   0.375000000000000   1.0000000
N2   N   0.388308670668224   0.610837321165758   0.875000000000000   1.0000000
N2   N   0.891938217439304   0.112635775386357   0.375000000000000   1.0000000
N2   N   0.221650962064641   0.777492147698718   0.875000000000000   1.0000000
N2   N   0.054996752630460   0.277503763211094   0.875000000000000   1.0000000
N2   N   0.388323594649522   0.277475616210522   0.875000000000000   1.0000000
N2   N   0.554977248842648   0.777485885984466   0.875000000000000   1.0000000
N2   N   0.888330856301269   0.777488599601956   0.875000000000000   1.0000000
N2   N   0.721648355323642   0.277506539181790   0.875000000000000   1.0000000
N2   N   0.054759675769620   0.777033339653067   0.375000000000000   1.0000000
N2   N   0.388404565800421   0.779686328818972   0.375000000000000   1.0000000
N2   N   0.226754839816311   0.280044086575027   0.375000000000000   1.0000000
N2   N   0.724504413852209   0.781267939373362   0.375000000000000   1.0000000
N2   N   0.555979996528891   0.268183227530048   0.375000000000000   1.0000000
N2   N   0.891491351269938   0.278331696629287   0.375000000000000   1.0000000
N2   N   0.054989871854953   0.444169138619465   0.875000000000000   1.0000000
N2   N   0.221645438559429   0.944147648105337   0.875000000000000   1.0000000
N2   N   0.554977631533231   0.944155482432573   0.875000000000000   1.0000000
N2   N   0.388323594649522   0.444181311772232   0.875000000000000   1.0000000
N2   N   0.888323145359656   0.944150438270895   0.875000000000000   1.0000000
N2   N   0.056307482019390   0.944411203532866   0.375000000000000   1.0000000
N2   N   0.721671343622680   0.444179029282375   0.875000000000000   1.0000000
N2   N   0.388404565800421   0.942051570314770   0.375000000000000   1.0000000
N2   N   0.222614715959552   0.446807858552473   0.375000000000000   1.0000000
N2   N   0.221216313888589   0.612394200731328   0.375000000000000   1.0000000
N2   N   0.724721158218364   0.946621977431811   0.375000000000000   1.0000000
N2   N   0.890021482160700   0.444358726638348   0.375000000000000   1.0000000
N2   N   0.054994747363751   0.610832536489424   0.875000000000000   1.0000000
N2   N   0.221656263497372   0.110820112800374   0.875000000000000   1.0000000
N2   N   0.721671343622680   0.610825647673249   0.875000000000000   1.0000000
N2   N   0.554977248842654   0.110824696191489   0.875000000000000   1.0000000
N2   N   0.888323493593437   0.110828413463366   0.875000000000000   1.0000000
B2   B   0.112604627361964   0.055554305283973   0.375000000000000   1.0000000
B2   B   0.614269023699452   0.569131997857800   0.375000000000000   1.0000000
B2   B   0.445114751745553   0.051706144647687   0.375000000000000   1.0000000
B2   B   0.943823056424292   0.555406342131550   0.375000000000000   1.0000000
B2   B   0.780892904937437   0.057113119135378   0.375000000000000   1.0000000
B2   B   0.110538838385158   0.721936085859066   0.875000000000000   1.0000000
B2   B   0.443864937656036   0.721896466388572   0.875000000000000   1.0000000
B2   B   0.277298195854353   0.221989659043669   0.875000000000000   1.0000000
B2   B   0.777158121964677   0.721842735398764   0.875000000000000   1.0000000
B2   B   0.610502196913494   0.221990412864552   0.875000000000000   1.0000000
B2   B   0.943899940772737   0.221963084429159   0.875000000000000   1.0000000
B2   B   0.277307781165188   0.722971074094095   0.375000000000000   1.0000000
B2   B   0.115804650976699   0.224568992155032   0.375000000000000   1.0000000
B2   B   0.443713964248965   0.213047849946668   0.375000000000000   1.0000000
B2   B   0.613063429303171   0.729217507929297   0.375000000000000   1.0000000
B2   B   0.943823056424296   0.721750047625630   0.375000000000000   1.0000000
B2   B   0.780512836621232   0.222333030500056   0.375000000000000   1.0000000
B2   B   0.110553551289600   0.888606995289305   0.875000000000000   1.0000000
B2   B   0.443860251591853   0.888596792462299   0.875000000000000   1.0000000
B2   B   0.277298195854353   0.388641870144157   0.875000000000000   1.0000000
B2   B   0.610486720047367   0.388648768608317   0.875000000000000   1.0000000
B2   B   0.777183305598560   0.888541721343807   0.875000000000000   1.0000000
B2   B   0.943870500954964   0.388633976998269   0.875000000000000   1.0000000
B2   B   0.112604627361963   0.390383655411540   0.375000000000000   1.0000000
B2   B   0.277307781165188   0.887670040403760   0.375000000000000   1.0000000
B2   B   0.613415104020674   0.891934578865835   0.375000000000000   1.0000000
B2   B   0.945789017928975   0.889850673743641   0.375000000000000   1.0000000
B2   B   0.779344006680088   0.388148244584146   0.375000000000000   1.0000000
B2   B   0.277240116035314   0.555269045605141   0.875000000000000   1.0000000
B2   B   0.110592943035199   0.055295639136549   0.875000000000000   1.0000000
B2   B   0.610486720047367   0.555171284772402   0.875000000000000   1.0000000
B2   B   0.443864937656037   0.055301804600602   0.875000000000000   1.0000000
B2   B   0.943853035696096   0.555279598501476   0.875000000000000   1.0000000
B2   B   0.110642884390091   0.556116558326805   0.375000000000000   1.0000000
B2   B   0.777196731671799   0.055265032502404   0.875000000000000   1.0000000
B2   B   0.277409596276799   0.052783716554583   0.375000000000000   1.0000000
B2   B   0.443713964248968   0.563999447635684   0.375000000000000   1.0000000
B2   B   0.776387195740620   0.554860264537408   0.375000000000000   1.0000000
B2   B   0.613415104020675   0.054813858488406   0.375000000000000   1.0000000
B2   B   0.443896904129946   0.555231939877895   0.875000000000000   1.0000000
B2   B   0.947779840277976   0.057546748554765   0.375000000000000   1.0000000
B2   B   0.277213272600660   0.721929475900948   0.875000000000000   1.0000000
B2   B   0.110620037987418   0.221976685660420   0.875000000000000   1.0000000
B2   B   0.443896904129946   0.221998297585435   0.875000000000000   1.0000000
B2   B   0.610502196913495   0.721845117382667   0.875000000000000   1.0000000
B2   B   0.943853035696078   0.721906770527830   0.875000000000000   1.0000000
B2   B   0.777183305598560   0.221974917588203   0.875000000000000   1.0000000
B2   B   0.110252991529253   0.721793162431175   0.375000000000000   1.0000000
B2   B   0.445114751745554   0.726741940431358   0.375000000000000   1.0000000
B2   B   0.280873744073317   0.221211801626822   0.375000000000000   1.0000000
B2   B   0.779344006680097   0.724529095428638   0.375000000000000   1.0000000
B2   B   0.613063429303175   0.217179254706695   0.375000000000000   1.0000000
B2   B   0.947779840277976   0.223566425056398   0.375000000000000   1.0000000
B2   B   0.110592943035199   0.388630637232012   0.875000000000000   1.0000000
B2   B   0.277213272600660   0.888617130033574   0.875000000000000   1.0000000
B2   B   0.610513281911910   0.888560058521785   0.875000000000000   1.0000000
B2   B   0.443952690206863   0.388643011770074   0.875000000000000   1.0000000
B2   B   0.943870500954964   0.888569857290310   0.875000000000000   1.0000000
B2   B   0.110642884390091   0.887859659396696   0.375000000000000   1.0000000
B2   B   0.777158121964677   0.388648719899261   0.875000000000000   1.0000000
B2   B   0.445253759922838   0.889293546627760   0.375000000000000   1.0000000
B2   B   0.280873744073316   0.392995275779803   0.375000000000000   1.0000000
B2   B   0.277409596276842   0.557959213055652   0.375000000000000   1.0000000
B2   B   0.614269023699452   0.378470359175574   0.375000000000000   1.0000000
B2   B   0.780512836621233   0.891513139453850   0.375000000000000   1.0000000
B2   B   0.945789017928975   0.389271677518362   0.375000000000000   1.0000000
B2   B   0.110553551289600   0.555279889333264   0.875000000000000   1.0000000
B2   B   0.277240116035314   0.055304403763572   0.875000000000000   1.0000000
B2   B   0.777154860477277   0.555244096905421   0.875000000000000   1.0000000
B2   B   0.610513281911910   0.055286556722599   0.875000000000000   1.0000000
B2   B   0.943899940772737   0.055270189677031   0.875000000000000   1.0000000
B2   B   0.055751258741873   0.111233953933819   0.125950114386468   1.0000000
B2   B   0.555843345824280   0.611043396025290   0.126078037775842   1.0000000
B2   B   0.389181798296775   0.111445261699669   0.126656703079738   1.0000000
B2   B   0.888829753985079   0.611081543658879   0.127605877460523   1.0000000
B2   B   0.722402763105928   0.111205530336991   0.125685691646467   1.0000000
B2   B   0.055658236489135   0.777849447991974   0.623220071696541   1.0000000
B2   B   0.389115735691119   0.777829059144328   0.624046073246566   1.0000000
B2   B   0.222446494804760   0.277889914069293   0.623866448750864   1.0000000
B2   B   0.722347323297650   0.777815556113929   0.623518822706149   1.0000000
B2   B   0.555843345824280   0.278133283132696   0.623921962224388   1.0000000
B2   B   0.889042643519798   0.277839020023608   0.623997101233049   1.0000000
B2   B   0.222391790620835   0.777862561977639   0.125871562739006   1.0000000
B2   B   0.055751258741873   0.277850638141296   0.125950114386468   1.0000000
B2   B   0.389068520803728   0.278015029497904   0.125729816302231   1.0000000
B2   B   0.555774042706313   0.777809946303848   0.126338051665897   1.0000000
B2   B   0.888950924969001   0.777821075565316   0.127079208027452   1.0000000
B2   B   0.722347323297650   0.277865100516593   0.126481177294057   1.0000000
B2   B   0.055716946222923   0.944570227258238   0.623538715550228   1.0000000
B2   B   0.389115735691123   0.944620009879846   0.624046073246566   1.0000000
B2   B   0.222443198365288   0.444460983223612   0.623580248380048   1.0000000
B2   B   0.555682657575445   0.444507995454384   0.620935501804380   1.0000000
B2   B   0.722402763105933   0.944530566102466   0.624314308353568   1.0000000
B2   B   0.888950924969001   0.444463182736974   0.622920791972496   1.0000000
B2   B   0.055716946222923   0.444480052297764   0.126461284449562   1.0000000
B2   B   0.222446228617878   0.944647046940388   0.126228755283503   1.0000000
B2   B   0.555759558675832   0.944546446005201   0.125874509509548   1.0000000
B2   B   0.389068520803728   0.444386824638823   0.125729816302231   1.0000000
B2   B   0.889042643519792   0.944536956829257   0.126002898767186   1.0000000
B2   B   0.722107124671641   0.444391953494197   0.126491070059796   1.0000000
B2   B   0.222446228617878   0.611132515011218   0.623771244715929   1.0000000
B2   B   0.055751258741873   0.111233953933819   0.624049885613164   1.0000000
B2   B   0.555843345824280   0.611043396025290   0.623921962224388   1.0000000
B2   B   0.389181798296766   0.111445261699668   0.623343296920557   1.0000000
B2   B   0.888829753985080   0.611081543658879   0.622394122539126   1.0000000
B2   B   0.055658236489135   0.611142121829680   0.126779928303068   1.0000000
B2   B   0.722402763105933   0.111205530336991   0.624314308353568   1.0000000
B2   B   0.222443198365289   0.111315548474913   0.126419751619924   1.0000000
B2   B   0.389181798296766   0.611069869930412   0.126656703079736   1.0000000
B2   B   0.722107124671643   0.611048504510633   0.126491070059796   1.0000000
B2   B   0.555774042706322   0.111297429735787   0.126338051665900   1.0000000
B2   B   0.389181798296766   0.611069869930412   0.623343296920551   1.0000000
B2   B   0.889076138655293   0.111204735994120   0.125344636198909   1.0000000
B2   B   0.222391790620835   0.777862561977639   0.624128437261213   1.0000000
B2   B   0.055751258741873   0.277850638141296   0.624049885613164   1.0000000
B2   B   0.389068520803728   0.278015029497904   0.624270183697494   1.0000000
B2   B   0.555774042706322   0.777809946303848   0.623661948333944   1.0000000
B2   B   0.888950924969001   0.777821075565316   0.622920791972496   1.0000000
B2   B   0.722347323297649   0.277865100516593   0.623518822706148   1.0000000
B2   B   0.055658236489135   0.777849447991974   0.126779928303068   1.0000000
B2   B   0.389115735691123   0.777829059144327   0.125953926753128   1.0000000
B2   B   0.222446494804760   0.277889914069293   0.126133551249095   1.0000000
B2   B   0.722347323297649   0.777815556113929   0.126481177294057   1.0000000
B2   B   0.555843345824280   0.278133283132696   0.126078037775848   1.0000000
B2   B   0.889042643519798   0.277839020023608   0.126002898767186   1.0000000
B2   B   0.055716946222923   0.444480052297764   0.623538715550228   1.0000000
B2   B   0.222446228617878   0.944647046940388   0.623771244715929   1.0000000
B2   B   0.555759558675832   0.944546446005201   0.624125490490629   1.0000000
B2   B   0.389068520803728   0.444386824638823   0.624270183697494   1.0000000
B2   B   0.889042643519792   0.944536956829257   0.623997101233049   1.0000000
B2   B   0.055716946222923   0.944570227258238   0.126461284449562   1.0000000
B2   B   0.722107124671643   0.444391953494196   0.623508929939922   1.0000000
B2   B   0.389115735691119   0.944620009879846   0.125953926753130   1.0000000
B2   B   0.222443198365288   0.444460983223612   0.126419751619924   1.0000000
B2   B   0.222446228617878   0.611132515011218   0.126228755283503   1.0000000
B2   B   0.555682657575440   0.444507995454386   0.129064498195703   1.0000000
B2   B   0.722402763105933   0.944530566102466   0.125685691646467   1.0000000
B2   B   0.888950924969001   0.444463182736974   0.127079208027453   1.0000000
B2   B   0.055658236489135   0.611142121829693   0.623220071696541   1.0000000
B2   B   0.222443198365288   0.111315548474913   0.623580248380048   1.0000000
B2   B   0.722107124671643   0.611048504510631   0.623508929939918   1.0000000
B2   B   0.555774042706322   0.111297429735787   0.623661948333944   1.0000000
B2   B   0.889076138655293   0.111204735994120   0.624655363801272   1.0000000


