data_1
_audit_creation_method   'vasp2cif'
_cell_length_a    17.52789999999977
_cell_length_b    17.52789999999977
_cell_length_c    15.0
_cell_angle_alpha    90.0
_cell_angle_beta    90.0
_cell_angle_gamma    119.99999999999916

_symmetry_space_group_name_H-M    'P 1'
loop_
_atom_site_label
_atom_site_type_symbol
_atom_site_fract_x
_atom_site_fract_y
_atom_site_fract_z
_atom_site_occupancy
B2   B   0.905121276102172   0.952889363326349   0.111022875766494   1.0000000
B2   B   0.904694979961192   0.095307041234804   0.111039478791021   1.0000000
B2   B   0.904694979961192   0.237959245052380   0.111039478791021   1.0000000
B2   B   0.905121276102172   0.380804930657831   0.111022875766494   1.0000000
B2   B   0.906451309206787   0.524022976555933   0.111042695032964   1.0000000
B2   B   0.906200829812981   0.667386923847992   0.111059602702596   1.0000000
B2   B   0.906451309206787   0.811001350533850   0.111042695032964   1.0000000
B2   B   0.047689684553859   0.952312336642144   0.111019766275746   1.0000000
B2   B   0.047112657869654   0.094880745093825   0.111022875766494   1.0000000
B2   B   0.046943973601842   0.237758495741922   0.111026848606301   1.0000000
B2   B   0.047112657869654   0.380804930657831   0.111022875766494   1.0000000
B2   B   0.047689684553859   0.523952077350721   0.111019766275746   1.0000000
B2   B   0.048110252067744   0.666933316025499   0.111033128941749   1.0000000
B2   B   0.048110252067744   0.809751665481251   0.111033128941749   1.0000000
B2   B   0.190250355714753   0.951891769128260   0.111033128941749   1.0000000
B2   B   0.189000670662153   0.093550711989209   0.111042695032964   1.0000000
B2   B   0.188896304024247   0.236969179949668   0.111017948628806   1.0000000
B2   B   0.188896304024247   0.380500141956581   0.111017948628806   1.0000000
B2   B   0.189000670662153   0.524022976555933   0.111042695032964   1.0000000
B2   B   0.190250355714753   0.666933316025499   0.111033128941749   1.0000000
B2   B   0.190476437651000   0.809525583545003   0.111012809672282   1.0000000
B2   B   0.333068705171499   0.951891769128260   0.111033128941749   1.0000000
B2   B   0.332615097349006   0.093801191383015   0.111059602702596   1.0000000
B2   B   0.329434136408658   0.233831237278274   0.111020414590712   1.0000000
B2   B   0.330439265976025   0.379506141928509   0.111013886550076   1.0000000
B2   B   0.329434136408658   0.524175917012386   0.111020414590712   1.0000000
B2   B   0.332615097349006   0.667386923847992   0.111059602702596   1.0000000
B2   B   0.333068705171499   0.809751665481251   0.111033128941749   1.0000000
B2   B   0.476049943846277   0.952312336642144   0.111019766275746   1.0000000
B2   B   0.475979044641065   0.093550711989209   0.111042695032964   1.0000000
B2   B   0.475826104184613   0.233831237278274   0.111020414590712   1.0000000
B2   B   0.467884835528544   0.364340667742098   0.111092596434290   1.0000000
B2   B   0.467884835528544   0.532117185668454   0.111092596434290   1.0000000
B2   B   0.475826104184613   0.670567884788341   0.111020414590712   1.0000000
B2   B   0.475979044641065   0.811001350533850   0.111042695032964   1.0000000
B2   B   0.619197090538172   0.952889363326349   0.111022875766494   1.0000000
B2   B   0.619197090538172   0.094880745093825   0.111022875766494   1.0000000
B2   B   0.619501879239422   0.236969179949668   0.111017948628806   1.0000000
B2   B   0.620495879267494   0.379506141928509   0.111013886550076   1.0000000
B2   B   0.635661353453905   0.532117185668454   0.111092596434290   1.0000000
B2   B   0.620495879267494   0.669562755220973   0.111013886550076   1.0000000
B2   B   0.619501879239422   0.811105717171756   0.111017948628806   1.0000000
B2   B   0.762243525454082   0.953058047594162   0.111026848606301   1.0000000
B2   B   0.762042776143623   0.095307041234804   0.111039478791021   1.0000000
B2   B   0.762243525454082   0.237758495741922   0.111026848606301   1.0000000
B2   B   0.763032841246336   0.380500141956581   0.111017948628806   1.0000000
B2   B   0.766170783917730   0.524175917012386   0.111020414590712   1.0000000
B2   B   0.766170783917730   0.670567884788341   0.111020414590712   1.0000000
B2   B   0.763032841246336   0.811105717171756   0.111017948628806   1.0000000
N2   N   0.953018990261675   0.905577779622014   0.110997584744283   1.0000000
N2   N   0.952247387650729   0.047754014267276   0.111000633313218   1.0000000
N2   N   0.952067965165533   0.190318779959270   0.111008639559095   1.0000000
N2   N   0.952247387650729   0.333062968136453   0.111000633313218   1.0000000
N2   N   0.953018990261675   0.476012516948657   0.110997584744283   1.0000000
N2   N   0.953284838067383   0.619287414782548   0.111018174607686   1.0000000
N2   N   0.953284838067383   0.762568729594832   0.111018174607686   1.0000000
N2   N   0.095288324459759   0.904713077458240   0.110997343605952   1.0000000
N2   N   0.094423622295984   0.046982411656330   0.110997584744283   1.0000000
N2   N   0.094200361139144   0.189901619449124   0.110992954897071   1.0000000
N2   N   0.094200361139144   0.332870047999030   0.110992954897071   1.0000000
N2   N   0.094423622295984   0.476012516948657   0.110997584744283   1.0000000
N2   N   0.095288324459759   0.619148264867512   0.110997343605952   1.0000000
N2   N   0.095492234191887   0.762032626028947   0.110997619903074   1.0000000
N2   N   0.237968775889058   0.904509167726111   0.110997619903074   1.0000000
N2   N   0.237432672323173   0.046716563850623   0.111018174607686   1.0000000
N2   N   0.235294665329775   0.188000084866623   0.111001683793688   1.0000000
N2   N   0.235959920887147   0.332265613598068   0.110992230845632   1.0000000
N2   N   0.235294665329775   0.475865886772141   0.111001683793688   1.0000000
N2   N   0.237432672323173   0.619287414782548   0.111018174607686   1.0000000
N2   N   0.237968775889058   0.762032626028947   0.110997619903074   1.0000000
N2   N   0.380853137050487   0.904713077458240   0.110997343605952   1.0000000
N2   N   0.380713987135451   0.046716563850623   0.111018174607686   1.0000000
N2   N   0.379929037746337   0.188427979884679   0.111013210504367   1.0000000
N2   N   0.374858485106678   0.327788775641750   0.110986156781479   1.0000000
N2   N   0.374858485106678   0.475641015773924   0.110986156781479   1.0000000
N2   N   0.379929037746337   0.620072364171662   0.111013210504367   1.0000000
N2   N   0.380713987135451   0.762568729594832   0.111018174607686   1.0000000
N2   N   0.523988884968340   0.905577779622014   0.110997584744283   1.0000000
N2   N   0.523988884968340   0.046982411656330   0.110997584744283   1.0000000
N2   N   0.524135515144856   0.188000084866623   0.111001683793688   1.0000000
N2   N   0.524360386143073   0.327788775641750   0.110986156781479   1.0000000
N2   N   0.524360386143073   0.625142916811321   0.110986156781479   1.0000000
N2   N   0.524135515144856   0.764706736588231   0.111001683793688   1.0000000
N2   N   0.667131353917966   0.905801040778854   0.110992954897071   1.0000000
N2   N   0.666938433780544   0.047754014267276   0.111000633313218   1.0000000
N2   N   0.667131353917966   0.189901619449124   0.110992954897071   1.0000000
N2   N   0.667735788318929   0.332265613598068   0.110992230845632   1.0000000
N2   N   0.672212626275247   0.475641015773924   0.110986156781479   1.0000000
N2   N   0.672212626275247   0.625142916811321   0.110986156781479   1.0000000
N2   N   0.667735788318929   0.764041481030866   0.110992230845632   1.0000000
N2   N   0.810099782468875   0.905801040778854   0.110992954897071   1.0000000
N2   N   0.809682621958729   0.047933436752473   0.111008639559095   1.0000000
N2   N   0.809682621958729   0.190318779959270   0.111008639559095   1.0000000
N2   N   0.810099782468875   0.332870047999030   0.110992954897071   1.0000000
N2   N   0.812001317051376   0.475865886772141   0.111001683793688   1.0000000
N2   N   0.811573422033320   0.620072364171662   0.111013210504367   1.0000000
N2   N   0.812001317051376   0.764706736588231   0.111001683793688   1.0000000
S2   S   0.523810499174999   0.476190902741997   0.111359912343993   1.0000000


