data_1
_audit_creation_method   'vasp2cif'
_cell_length_a    14.93631414619966
_cell_length_b    14.936314146199727
_cell_length_c    13.341276283792837
_cell_angle_alpha    90.0
_cell_angle_beta    90.0
_cell_angle_gamma    119.99999999999984

_symmetry_space_group_name_H-M    'P 1'
loop_
_atom_site_label
_atom_site_type_symbol
_atom_site_fract_x
_atom_site_fract_y
_atom_site_fract_z
_atom_site_occupancy
C2   C   0.715588845116366   0.440726855976637   0.375000000000000   1.0000000
C2   C   0.609278206135834   0.386375993827403   0.375000000000000   1.0000000
C2   C   0.444939404461634   0.387870783866221   0.375000000000000   1.0000000
C2   C   0.551320137958889   0.439424060317571   0.375000000000000   1.0000000
N2   N   0.111102688761145   0.055556544089944   0.125075739895643   1.0000000
N2   N   0.611108916114139   0.555547772125082   0.124603699493793   1.0000000
N2   N   0.444438155635572   0.055568967485013   0.125099095739974   1.0000000
N2   N   0.944436202955756   0.555553108692584   0.124958003924553   1.0000000
N2   N   0.777779130971741   0.055562365719168   0.125028304176889   1.0000000
N2   N   0.111099637996723   0.722217506226072   0.624991159157581   1.0000000
N2   N   0.444439042448354   0.722210909238245   0.624939273133401   1.0000000
N2   N   0.277749926395300   0.222218745310257   0.624851214678458   1.0000000
N2   N   0.777777623349107   0.722220854833734   0.625034917455045   1.0000000
N2   N   0.611105211885950   0.222238679569013   0.624982406544642   1.0000000
N2   N   0.944445174411335   0.222223080907094   0.624985345482166   1.0000000
N2   N   0.277770337629686   0.722218631338207   0.125021895321034   1.0000000
N2   N   0.111094309748204   0.222214096776933   0.125075521946400   1.0000000
N2   N   0.444422694818921   0.222235881968636   0.125132620869089   1.0000000
N2   N   0.611107054084278   0.722204158369109   0.125055398990816   1.0000000
N2   N   0.944439386116180   0.722225898195039   0.124957601115027   1.0000000
N2   N   0.777778825590545   0.222231116283624   0.124999776958076   1.0000000
N2   N   0.111104802309637   0.888892695444543   0.624980487780086   1.0000000
N2   N   0.444439641290912   0.888892760690539   0.624961779739477   1.0000000
N2   N   0.277764157917980   0.388875307194962   0.624842351241835   1.0000000
N2   N   0.611053822056897   0.388856692537827   0.626004808188974   1.0000000
N2   N   0.777781731703275   0.888892605294070   0.624979909294175   1.0000000
N2   N   0.944444061387032   0.388889762276289   0.625038938648713   1.0000000
N2   N   0.111105506277173   0.388887578018416   0.125068207951755   1.0000000
N2   N   0.277772088919916   0.888892034857958   0.125031171227091   1.0000000
N2   N   0.611107142472182   0.888886789327547   0.125038580062276   1.0000000
N2   N   0.444382399404675   0.388855571468238   0.124380299903733   1.0000000
N2   N   0.944446400374210   0.888898339703939   0.125005050795394   1.0000000
N2   N   0.777786070491397   0.388885090977059   0.124542469444886   1.0000000
N2   N   0.277771033369287   0.555546455753787   0.624934044880400   1.0000000
N2   N   0.111102688761145   0.055556544089944   0.624924260104358   1.0000000
N2   N   0.611108916114139   0.555547772125082   0.625396300506208   1.0000000
N2   N   0.444438155635572   0.055568967485013   0.624900904260025   1.0000000
N2   N   0.944436202955756   0.555553108692584   0.625041996075448   1.0000000
N2   N   0.111100126710071   0.555551517583934   0.125005065860122   1.0000000
N2   N   0.777779130971741   0.055562365719168   0.624971695823111   1.0000000
N2   N   0.277768240076396   0.055561035800060   0.125115710179624   1.0000000
N2   N   0.444438619522093   0.555532954352358   0.125056473614778   1.0000000
N2   N   0.777781708836947   0.555570563374789   0.124552272110029   1.0000000
N2   N   0.611105404198744   0.055565127737620   0.125053666390246   1.0000000
N2   N   0.444438619522093   0.555532954352358   0.624943526385221   1.0000000
N2   N   0.944446074871673   0.055559169684555   0.125028068898782   1.0000000
N2   N   0.277770337629686   0.722218631338207   0.624978104678966   1.0000000
N2   N   0.111094309748204   0.222214096776933   0.624924478053600   1.0000000
N2   N   0.444422694818921   0.222235881968636   0.624867379130911   1.0000000
N2   N   0.611107054084278   0.722204158369109   0.624944601009184   1.0000000
N2   N   0.944439386116180   0.722225898195039   0.625042398884973   1.0000000
N2   N   0.777778825590545   0.222231116283624   0.625000223041924   1.0000000
N2   N   0.111099637996723   0.722217506226072   0.125008840842419   1.0000000
N2   N   0.444439042448354   0.722210909238245   0.125060726866600   1.0000000
N2   N   0.277749926395300   0.222218745310257   0.125148785321542   1.0000000
N2   N   0.777777623349107   0.722220854833734   0.124965082544955   1.0000000
N2   N   0.611105211885950   0.222238679569013   0.125017593455358   1.0000000
N2   N   0.944445174411335   0.222223080907094   0.125014654517834   1.0000000
N2   N   0.111105506277173   0.388887578018416   0.624931792048245   1.0000000
N2   N   0.277772088919916   0.888892034857958   0.624968828772909   1.0000000
N2   N   0.611107142472182   0.888886789327547   0.624961419937723   1.0000000
N2   N   0.444382399404675   0.388855571468238   0.625619700096267   1.0000000
N2   N   0.944446400374210   0.888898339703939   0.624994949204605   1.0000000
N2   N   0.111104802309637   0.888892695444543   0.125019512219914   1.0000000
N2   N   0.777786070491397   0.388885090977059   0.625457530555114   1.0000000
N2   N   0.444439641290912   0.888892760690539   0.125038220260522   1.0000000
N2   N   0.277764157917980   0.388875307194962   0.125157648758164   1.0000000
N2   N   0.277771033369287   0.555546455753787   0.125065955119601   1.0000000
N2   N   0.611053822056897   0.388856692537827   0.123995191811026   1.0000000
N2   N   0.777781731703275   0.888892605294070   0.125020090705824   1.0000000
N2   N   0.944444061387032   0.388889762276289   0.124961061351286   1.0000000
N2   N   0.111100126710071   0.555551517583934   0.624994934139877   1.0000000
N2   N   0.277768240076396   0.055561035800060   0.624884289820377   1.0000000
N2   N   0.777781708836947   0.555570563374789   0.625447727889971   1.0000000
N2   N   0.611105404198744   0.055565127737620   0.624946333609754   1.0000000
N2   N   0.944446074871673   0.055559169684555   0.624971931101218   1.0000000
N2   N   0.055904696439743   0.111347484519420   0.375000000000000   1.0000000
N2   N   0.555783639945649   0.612171362189752   0.375000000000000   1.0000000
N2   N   0.389483620359491   0.112755012024581   0.375000000000000   1.0000000
N2   N   0.888311620019812   0.611527981985641   0.375000000000000   1.0000000
N2   N   0.722047266349495   0.110288156831926   0.375000000000000   1.0000000
N2   N   0.055560053523036   0.777783720957043   0.875000000000000   1.0000000
N2   N   0.388892756755925   0.777785010310019   0.875000000000000   1.0000000
N2   N   0.222223710570861   0.277781656785856   0.875000000000000   1.0000000
N2   N   0.722219508234307   0.777780271858408   0.875000000000000   1.0000000
N2   N   0.555552249797730   0.277774300450438   0.875000000000000   1.0000000
N2   N   0.888889312944524   0.277781129198518   0.875000000000000   1.0000000
N2   N   0.222232868878651   0.777708700154773   0.375000000000000   1.0000000
N2   N   0.055957789697686   0.277850895854124   0.375000000000000   1.0000000
N2   N   0.389436606172179   0.280773028518188   0.375000000000000   1.0000000
N2   N   0.555349928387732   0.778122284823777   0.375000000000000   1.0000000
N2   N   0.889488984596770   0.778905456535003   0.375000000000000   1.0000000
N2   N   0.722192564259608   0.275468637575552   0.375000000000000   1.0000000
N2   N   0.055555855063218   0.944449861958755   0.875000000000000   1.0000000
N2   N   0.388892971023977   0.944447215795001   0.875000000000000   1.0000000
N2   N   0.222225616484770   0.444449748454110   0.875000000000000   1.0000000
N2   N   0.555553105073966   0.444450577732770   0.875000000000000   1.0000000
N2   N   0.722219914764299   0.944446348377773   0.875000000000000   1.0000000
N2   N   0.888895298984318   0.444449812904195   0.875000000000000   1.0000000
N2   N   0.056271783115754   0.444283211386413   0.375000000000000   1.0000000
N2   N   0.222738194150929   0.945096545035777   0.375000000000000   1.0000000
N2   N   0.555261195868945   0.944517097369688   0.375000000000000   1.0000000
N2   N   0.390932211549612   0.441473258394419   0.375000000000000   1.0000000
N2   N   0.889243245248078   0.945010260105206   0.375000000000000   1.0000000
N2   N   0.222225215074430   0.611115718334742   0.875000000000000   1.0000000
N2   N   0.055553601956356   0.111111247349879   0.875000000000000   1.0000000
N2   N   0.555550942362109   0.611114541945612   0.875000000000000   1.0000000
N2   N   0.388891056068241   0.111110343913562   0.875000000000000   1.0000000
N2   N   0.888895549900416   0.611115638526356   0.875000000000000   1.0000000
N2   N   0.055143093855304   0.610785861838133   0.375000000000000   1.0000000
N2   N   0.722217426230551   0.111110394602746   0.875000000000000   1.0000000
N2   N   0.223217883424930   0.112197579338298   0.375000000000000   1.0000000
N2   N   0.389200744063331   0.609779967022691   0.375000000000000   1.0000000
N2   N   0.722401333679852   0.614204684970071   0.375000000000000   1.0000000
N2   N   0.555275164007030   0.111290584932006   0.375000000000000   1.0000000
N2   N   0.388891138302757   0.611117333520992   0.875000000000000   1.0000000
N2   N   0.889112361855856   0.111168786408409   0.375000000000000   1.0000000
N2   N   0.222227068669168   0.777782890258642   0.875000000000000   1.0000000
N2   N   0.055556004696770   0.277780413284888   0.875000000000000   1.0000000
N2   N   0.388889564744323   0.277779722997029   0.875000000000000   1.0000000
N2   N   0.555554928236317   0.777782033052088   0.875000000000000   1.0000000
N2   N   0.888890711742458   0.777784155685187   0.875000000000000   1.0000000
N2   N   0.722219561670188   0.277776390532573   0.875000000000000   1.0000000
N2   N   0.055818381780367   0.778148254809322   0.375000000000000   1.0000000
N2   N   0.388820971911814   0.777367582693552   0.375000000000000   1.0000000
N2   N   0.222104494330935   0.277635872862703   0.375000000000000   1.0000000
N2   N   0.722344272132998   0.779182563850014   0.375000000000000   1.0000000
N2   N   0.555826527726829   0.278757417378694   0.375000000000000   1.0000000
N2   N   0.889219621267729   0.277440011044356   0.375000000000000   1.0000000
N2   N   0.055558085650070   0.444449026934572   0.875000000000000   1.0000000
N2   N   0.222225780890159   0.944448168320079   0.875000000000000   1.0000000
N2   N   0.555554334222365   0.944447311568114   0.875000000000000   1.0000000
N2   N   0.388891076600491   0.444452537998793   0.875000000000000   1.0000000
N2   N   0.888888731050092   0.944447680649291   0.875000000000000   1.0000000
N2   N   0.056295698221731   0.945227063963022   0.375000000000000   1.0000000
N2   N   0.722223945863597   0.444448073033964   0.875000000000000   1.0000000
N2   N   0.388883515604005   0.944766053933982   0.375000000000000   1.0000000
N2   N   0.223688650518191   0.444143501056410   0.375000000000000   1.0000000
N2   N   0.222449062542316   0.610759123994366   0.375000000000000   1.0000000
N2   N   0.722126712964263   0.944665388018264   0.375000000000000   1.0000000
N2   N   0.888871573153413   0.443629728161846   0.375000000000000   1.0000000
N2   N   0.055561030839823   0.611114412566555   0.875000000000000   1.0000000
N2   N   0.222222174013324   0.111112584716496   0.875000000000000   1.0000000
N2   N   0.722219495772683   0.611114805444562   0.875000000000000   1.0000000
N2   N   0.555552264800722   0.111107417572568   0.875000000000000   1.0000000
N2   N   0.888887193495315   0.111111068515940   0.875000000000000   1.0000000
B2   B   0.111618357323920   0.056072333171504   0.375000000000000   1.0000000
B2   B   0.611848543118775   0.557392536941978   0.375000000000000   1.0000000
B2   B   0.444489653873915   0.056001356980851   0.375000000000000   1.0000000
B2   B   0.943207247051908   0.554998316053879   0.375000000000000   1.0000000
B2   B   0.777890751856318   0.055389857932058   0.375000000000000   1.0000000
B2   B   0.111095710375281   0.722211515281486   0.875000000000000   1.0000000
B2   B   0.444452777600667   0.722232362247769   0.875000000000000   1.0000000
B2   B   0.277790998939460   0.222228970436948   0.875000000000000   1.0000000
B2   B   0.777771300220806   0.722200082381440   0.875000000000000   1.0000000
B2   B   0.611127362814639   0.222244288285555   0.875000000000000   1.0000000
B2   B   0.944427600756503   0.222228178135098   0.875000000000000   1.0000000
B2   B   0.277710170977763   0.721976537399149   0.375000000000000   1.0000000
B2   B   0.110770914676711   0.222060997273949   0.375000000000000   1.0000000
B2   B   0.445087877499061   0.223720658114281   0.375000000000000   1.0000000
B2   B   0.611397658594158   0.723383115102447   0.375000000000000   1.0000000
B2   B   0.944341335038637   0.722335089200752   0.375000000000000   1.0000000
B2   B   0.778075732957276   0.220986486264455   0.375000000000000   1.0000000
B2   B   0.111098523365804   0.888873049818783   0.875000000000000   1.0000000
B2   B   0.444450627612451   0.888893860711371   0.875000000000000   1.0000000
B2   B   0.277791098889390   0.388906588894717   0.875000000000000   1.0000000
B2   B   0.611144972579026   0.388919189706823   0.875000000000000   1.0000000
B2   B   0.777769715607197   0.888876796636282   0.875000000000000   1.0000000
B2   B   0.944427409782210   0.388904313307311   0.875000000000000   1.0000000
B2   B   0.111895366907603   0.388897802401837   0.375000000000000   1.0000000
B2   B   0.277773976375983   0.888895243492298   0.375000000000000   1.0000000
B2   B   0.610997262310448   0.889215909691620   0.375000000000000   1.0000000
B2   B   0.945003375462666   0.889605665934461   0.375000000000000   1.0000000
B2   B   0.776956782839563   0.386374773374799   0.375000000000000   1.0000000
B2   B   0.277781207817687   0.555571116909956   0.875000000000000   1.0000000
B2   B   0.111098922389081   0.055543068578028   0.875000000000000   1.0000000
B2   B   0.611129743951838   0.555555077022901   0.875000000000000   1.0000000
B2   B   0.444457912344057   0.055559487622441   0.875000000000000   1.0000000
B2   B   0.944426955491633   0.555552124702592   0.875000000000000   1.0000000
B2   B   0.111013167922675   0.555426078079938   0.375000000000000   1.0000000
B2   B   0.777768531449498   0.055557830992828   0.875000000000000   1.0000000
B2   B   0.278252564898337   0.056121895441041   0.375000000000000   1.0000000
B2   B   0.445927455557585   0.555078959506193   0.375000000000000   1.0000000
B2   B   0.776045537664379   0.557019251660335   0.375000000000000   1.0000000
B2   B   0.610974034461653   0.055548552870182   0.375000000000000   1.0000000
B2   B   0.444466140742234   0.555572711706370   0.875000000000000   1.0000000
B2   B   0.944646614148182   0.055771192935208   0.375000000000000   1.0000000
B2   B   0.277775099206542   0.722226154267516   0.875000000000000   1.0000000
B2   B   0.111100112281051   0.222222762969907   0.875000000000000   1.0000000
B2   B   0.444476103807368   0.222239793398266   0.875000000000000   1.0000000
B2   B   0.611117771757505   0.722217821021816   0.875000000000000   1.0000000
B2   B   0.944426671819668   0.722199364198303   0.875000000000000   1.0000000
B2   B   0.777771442875652   0.222240181771175   0.875000000000000   1.0000000
B2   B   0.110838172441728   0.721976454902601   0.375000000000000   1.0000000
B2   B   0.444404018207452   0.721627814236861   0.375000000000000   1.0000000
B2   B   0.277334805330545   0.222784799257850   0.375000000000000   1.0000000
B2   B   0.778334037410497   0.724263927167395   0.375000000000000   1.0000000
B2   B   0.612062884986459   0.222290431580148   0.375000000000000   1.0000000
B2   B   0.944675364719900   0.222219059951595   0.375000000000000   1.0000000
B2   B   0.111099698504832   0.388900209827792   0.875000000000000   1.0000000
B2   B   0.277777325677428   0.888883069953954   0.875000000000000   1.0000000
B2   B   0.611112818761618   0.888891236235823   0.875000000000000   1.0000000
B2   B   0.444488462137225   0.388916828922274   0.875000000000000   1.0000000
B2   B   0.944428500820654   0.888868802378959   0.875000000000000   1.0000000
B2   B   0.111412010472748   0.889164140378651   0.375000000000000   1.0000000
B2   B   0.777774981089113   0.388912637546975   0.875000000000000   1.0000000
B2   B   0.444241234657600   0.888741531851678   0.375000000000000   1.0000000
B2   B   0.278367497361970   0.387909236478450   0.375000000000000   1.0000000
B2   B   0.278199227341149   0.555325611979795   0.375000000000000   1.0000000
B2   B   0.778056221956266   0.889752452639999   0.375000000000000   1.0000000
B2   B   0.944747706139256   0.388834818644983   0.375000000000000   1.0000000
B2   B   0.111097191282175   0.555560873799955   0.875000000000000   1.0000000
B2   B   0.277783833178434   0.055550589413334   0.875000000000000   1.0000000
B2   B   0.777773460915460   0.555544071644066   0.875000000000000   1.0000000
B2   B   0.611115094216555   0.055564800934188   0.875000000000000   1.0000000
B2   B   0.944427528493002   0.055545803887861   0.875000000000000   1.0000000
B2   B   0.055514454204799   0.111082927985371   0.124985230322143   1.0000000
B2   B   0.555643841597482   0.611067264168551   0.124900068238547   1.0000000
B2   B   0.388901900844615   0.111130693102182   0.125005800897451   1.0000000
B2   B   0.888783158668816   0.611037403468782   0.125018088763805   1.0000000
B2   B   0.722246104624500   0.111163810855698   0.125007175457075   1.0000000
B2   B   0.055479498717003   0.777716905103451   0.624981394195207   1.0000000
B2   B   0.388873947315292   0.777768999770916   0.624999166154586   1.0000000
B2   B   0.222172299999688   0.277764077053733   0.625064144552397   1.0000000
B2   B   0.722252281733601   0.777739148941059   0.624986963502539   1.0000000
B2   B   0.555680460724800   0.277953361899643   0.625368904195384   1.0000000
B2   B   0.888876998263464   0.277822602373699   0.625003815635343   1.0000000
B2   B   0.222163334210999   0.777743167569303   0.125002883603263   1.0000000
B2   B   0.055510855696237   0.277783781623274   0.124991023095654   1.0000000
B2   B   0.388932474699177   0.277851194929650   0.124594598555772   1.0000000
B2   B   0.555579707489708   0.777761927754129   0.125012973105110   1.0000000
B2   B   0.888860849969685   0.777719426361537   0.125011299910934   1.0000000
B2   B   0.722289619319955   0.277916286751441   0.124920548747173   1.0000000
B2   B   0.055511007003269   0.944393317399993   0.625000086768210   1.0000000
B2   B   0.388878378138975   0.944442827007862   0.624998320432373   1.0000000
B2   B   0.222181711607963   0.444452956041639   0.624998505731016   1.0000000
B2   B   0.555644991067187   0.444434810222332   0.625321206050440   1.0000000
B2   B   0.722237255594681   0.944445832806813   0.624997973587359   1.0000000
B2   B   0.888801903002190   0.444444812335048   0.625010735736635   1.0000000
B2   B   0.055487979614566   0.444449636821707   0.125012065282708   1.0000000
B2   B   0.222178793769251   0.944401046326146   0.125000649048302   1.0000000
B2   B   0.555568417870152   0.944461675611656   0.125002689678778   1.0000000
B2   B   0.388943366487953   0.444431819776141   0.124636977700481   1.0000000
B2   B   0.888879386014136   0.944417644164401   0.125000313656852   1.0000000
B2   B   0.722195399786660   0.444453741615368   0.125143127891350   1.0000000
B2   B   0.222166395514481   0.611100662943713   0.625001783799966   1.0000000
B2   B   0.055514454204799   0.111082927985371   0.625014769677857   1.0000000
B2   B   0.555643841597482   0.611067264168551   0.625099931761453   1.0000000
B2   B   0.388901900844615   0.111130693102182   0.624994199102550   1.0000000
B2   B   0.888783158668816   0.611037403468782   0.624981911236195   1.0000000
B2   B   0.055454012288851   0.611069597246016   0.125039303198938   1.0000000
B2   B   0.722246104624500   0.111163810855698   0.624992824542926   1.0000000
B2   B   0.222181081958884   0.111073075704538   0.124989684357071   1.0000000
B2   B   0.388899193325621   0.611103592663807   0.124998384458631   1.0000000
B2   B   0.722244644653346   0.611032521315328   0.124896938308127   1.0000000
B2   B   0.555604408783842   0.111187005339659   0.125015943485220   1.0000000
B2   B   0.388899193325621   0.611103592663807   0.625001615541369   1.0000000
B2   B   0.888880894372622   0.111120493678969   0.124999117304012   1.0000000
B2   B   0.222163334210999   0.777743167569303   0.624997116396737   1.0000000
B2   B   0.055510855696237   0.277783781623274   0.625008976904346   1.0000000
B2   B   0.388932474699177   0.277851194929650   0.625405401444228   1.0000000
B2   B   0.555579707489708   0.777761927754129   0.624987026894889   1.0000000
B2   B   0.888860849969685   0.777719426361537   0.624988700089067   1.0000000
B2   B   0.722289619319955   0.277916286751441   0.625079451252827   1.0000000
B2   B   0.055479498717003   0.777716905103451   0.125018605804793   1.0000000
B2   B   0.388873947315292   0.777768999770916   0.125000833845413   1.0000000
B2   B   0.222172299999688   0.277764077053733   0.124935855447602   1.0000000
B2   B   0.722252281733601   0.777739148941059   0.125013036497461   1.0000000
B2   B   0.555680460724800   0.277953361899643   0.124631095804616   1.0000000
B2   B   0.888876998263464   0.277822602373699   0.124996184364657   1.0000000
B2   B   0.055487979614566   0.444449636821707   0.624987934717292   1.0000000
B2   B   0.222178793769251   0.944401046326146   0.624999350951698   1.0000000
B2   B   0.555568417870152   0.944461675611656   0.624997310321222   1.0000000
B2   B   0.388943366487953   0.444431819776141   0.625363022299519   1.0000000
B2   B   0.888879386014136   0.944417644164401   0.624999686343149   1.0000000
B2   B   0.055511007003269   0.944393317399993   0.124999913231790   1.0000000
B2   B   0.722195399786660   0.444453741615368   0.624856872108650   1.0000000
B2   B   0.388878378138975   0.944442827007862   0.125001679567627   1.0000000
B2   B   0.222181711607963   0.444452956041639   0.125001494268984   1.0000000
B2   B   0.222166395514481   0.611100662943713   0.124998216200034   1.0000000
B2   B   0.555644991067187   0.444434810222332   0.124678793949559   1.0000000
B2   B   0.722237255594681   0.944445832806813   0.125002026412640   1.0000000
B2   B   0.888801903002190   0.444444812335048   0.124989264263364   1.0000000
B2   B   0.055454012288851   0.611069597246016   0.624960696801061   1.0000000
B2   B   0.222181081958884   0.111073075704538   0.625010315642929   1.0000000
B2   B   0.722244644653346   0.611032521315328   0.625103061691873   1.0000000
B2   B   0.555604408783842   0.111187005339659   0.624984056514781   1.0000000
B2   B   0.888880894372622   0.111120493678969   0.625000882695989   1.0000000


