data_1
_audit_creation_method   'vasp2cif'
_cell_length_a    17.52789999999977
_cell_length_b    17.52789999999977
_cell_length_c    15.0
_cell_angle_alpha    90.0
_cell_angle_beta    90.0
_cell_angle_gamma    119.99999999999916

_symmetry_space_group_name_H-M    'P 1'
loop_
_atom_site_label
_atom_site_type_symbol
_atom_site_fract_x
_atom_site_fract_y
_atom_site_fract_z
_atom_site_occupancy
B2   B   0.905255476728949   0.952797032284160   0.110998517750281   1.0000000
B2   B   0.904716184612057   0.095285584258945   0.111050268882225   1.0000000
B2   B   0.904638855605183   0.238073394885775   0.111056393569791   1.0000000
B2   B   0.904682797177358   0.380900345348454   0.111003382146315   1.0000000
B2   B   0.905234189011757   0.523910712492572   0.111005726202128   1.0000000
B2   B   0.906201261454747   0.667154538481032   0.111083010689627   1.0000000
B2   B   0.906150191858184   0.810455035412607   0.111042753277695   1.0000000
B2   B   0.047733869658001   0.952267852497999   0.110996652038392   1.0000000
B2   B   0.047204673482838   0.094746225463053   0.110998518940284   1.0000000
B2   B   0.047317858116239   0.237865646567524   0.111001415982070   1.0000000
B2   B   0.047302479555170   0.380869337019722   0.111026534186379   1.0000000
B2   B   0.047239290792798   0.523846279367602   0.111014040650065   1.0000000
B2   B   0.047848501540254   0.666858552524494   0.111029649354441   1.0000000
B2   B   0.048062647514116   0.809708310071527   0.111007715465041   1.0000000
B2   B   0.190293432948474   0.951939104524889   0.111007711929039   1.0000000
B2   B   0.189546674897395   0.093851551598815   0.111042751216695   1.0000000
B2   B   0.189093189492719   0.236248301337909   0.110986529330073   1.0000000
B2   B   0.190027935269508   0.380785574763036   0.110990130969903   1.0000000
B2   B   0.189185219817664   0.523995880379303   0.111052273297946   1.0000000
B2   B   0.189765913649810   0.666995904476305   0.111077487723447   1.0000000
B2   B   0.190365248066333   0.809636388271665   0.111005779980332   1.0000000
B2   B   0.333143114937508   0.952153139818745   0.111029646471442   1.0000000
B2   B   0.332847213365970   0.093800478294248   0.111083009685630   1.0000000
B2   B   0.331272848007637   0.234146952851117   0.111025069404473   1.0000000
B2   B   0.330945872232242   0.375827447794166   0.110997509476675   1.0000000
B2   B   0.331066334689719   0.525959537590652   0.110956202566757   1.0000000
B2   B   0.331688981956389   0.668312840655610   0.111061166729960   1.0000000
B2   B   0.333005747549689   0.810235770937188   0.111077485941448   1.0000000
B2   B   0.476155364548399   0.952762300658205   0.111014045946067   1.0000000
B2   B   0.476091007928425   0.094767480213243   0.111005740222131   1.0000000
B2   B   0.475626041990648   0.236356210123680   0.111069797510833   1.0000000
B2   B   0.472720249986358   0.375595364379740   0.110986841371486   1.0000000
B2   B   0.474042191398346   0.668935427561277   0.110956202237755   1.0000000
B2   B   0.476005906631698   0.810816610011331   0.111052273272942   1.0000000
B2   B   0.619132407870277   0.952699248168834   0.111026536919382   1.0000000
B2   B   0.619101312688547   0.095318816728643   0.111003389364314   1.0000000
B2   B   0.619007371468300   0.237907365703844   0.111018062584301   1.0000000
B2   B   0.619146581692956   0.380855217586041   0.111024915080995   1.0000000
B2   B   0.624406369685262   0.527281385724643   0.110986841197481   1.0000000
B2   B   0.624174209831835   0.669055725701753   0.110997507062677   1.0000000
B2   B   0.619216149966962   0.809973828343499   0.110990129134905   1.0000000
B2   B   0.762136076034470   0.952683890133761   0.111001418336069   1.0000000
B2   B   0.761928306017224   0.095362833402819   0.111056393073790   1.0000000
B2   B   0.761900698866220   0.238100924364780   0.111063430159739   1.0000000
B2   B   0.762094366676148   0.380994353158698   0.111018056007304   1.0000000
B2   B   0.763645658971321   0.524375729994357   0.111069790276833   1.0000000
B2   B   0.765854836226882   0.668728844549363   0.111025070963468   1.0000000
B2   B   0.763753354331086   0.810908474209282   0.110986530350078   1.0000000
C2   C   0.381701531121152   0.476291199093598   0.111097531471183   1.0000000
C2   C   0.475803195305543   0.524198343437457   0.111348566625948   1.0000000
C2   C   0.522396962455566   0.477604791416433   0.111075629691779   1.0000000
C2   C   0.523710347680403   0.618299968841846   0.111097535004179   1.0000000
N2   N   0.952957293228461   0.905289494961218   0.110991993361667   1.0000000
N2   N   0.952292384894984   0.047709335234015   0.111000486743328   1.0000000
N2   N   0.952193640089276   0.190459157849433   0.111029750403744   1.0000000
N2   N   0.952149838155926   0.333222269923577   0.111008782960048   1.0000000
N2   N   0.952263216512248   0.476044495495856   0.110956038972911   1.0000000
N2   N   0.952982688146314   0.619085700043839   0.111023744296309   1.0000000
N2   N   0.953244333542805   0.762310183948519   0.111047834600187   1.0000000
N2   N   0.095324671785308   0.904677093787695   0.110960841196062   1.0000000
N2   N   0.094712219957784   0.047044433264536   0.110992003868669   1.0000000
N2   N   0.094348995991684   0.189674515662126   0.110968736114097   1.0000000
N2   N   0.094941154481728   0.333177645850349   0.110981623996956   1.0000000
N2   N   0.094337738704615   0.476051728691877   0.111023306461371   1.0000000
N2   N   0.094854024475455   0.619049638382380   0.111020203219813   1.0000000
N2   N   0.095377424352048   0.761992703373219   0.110983316524465   1.0000000
N2   N   0.238008964253778   0.904624228026950   0.110983315601463   1.0000000
N2   N   0.237691559223481   0.046757443812191   0.111047824393184   1.0000000
N2   N   0.236373527828200   0.188249869223375   0.111000795197258   1.0000000
N2   N   0.236587037427862   0.331357502224912   0.110969827039977   1.0000000
N2   N   0.236392457899732   0.476386040602616   0.110978595865172   1.0000000
N2   N   0.236764413188433   0.619410632607179   0.111060949196941   1.0000000
N2   N   0.237808925399552   0.762192724043448   0.111050567198738   1.0000000
N2   N   0.380952005208618   0.905147598743545   0.111020193935812   1.0000000
N2   N   0.380916005270160   0.047018942705690   0.111023749856313   1.0000000
N2   N   0.380444855504408   0.188338825887712   0.111060648629439   1.0000000
N2   N   0.378048880131326   0.327605368527578   0.110969018453110   1.0000000
N2   N   0.378761873187979   0.621239881647019   0.110967669195405   1.0000000
N2   N   0.380591166165813   0.763237445666567   0.111060956078938   1.0000000
N2   N   0.523950047625130   0.905664064358385   0.111023311729370   1.0000000
N2   N   0.523957161325143   0.047738327593751   0.110956056969907   1.0000000
N2   N   0.523838321977932   0.189804478310198   0.111015370076764   1.0000000
N2   N   0.523169975233979   0.331711582354502   0.111016468939815   1.0000000
N2   N   0.523615695699388   0.763609355183271   0.110978590838174   1.0000000
N2   N   0.666824109375646   0.905060629674277   0.110981622701957   1.0000000
N2   N   0.666779442566421   0.047851836226073   0.111008785671046   1.0000000
N2   N   0.666712507596801   0.190554892886339   0.111019478394045   1.0000000
N2   N   0.666599229440228   0.333402528728771   0.110995188645001   1.0000000
N2   N   0.668290352612501   0.476831799793023   0.111016464096813   1.0000000
N2   N   0.672396426661423   0.621952768018678   0.110969019761113   1.0000000
N2   N   0.668644101154086   0.763414612434145   0.110969822254976   1.0000000
N2   N   0.810327167595873   0.905652712095314   0.110968737787099   1.0000000
N2   N   0.809542611985569   0.047808143072730   0.111029753869743   1.0000000
N2   N   0.809470068626733   0.190531588804267   0.111052715596160   1.0000000
N2   N   0.809446735437661   0.333289135664200   0.111019472878045   1.0000000
N2   N   0.810197246730804   0.476163396057070   0.111015350747764   1.0000000
N2   N   0.811663007661287   0.619556895541591   0.111060647999436   1.0000000
N2   N   0.811751858620626   0.763628165834802   0.111000799949254   1.0000000


