data_1
_audit_creation_method   'vasp2cif'
_cell_length_a    14.93631414619966
_cell_length_b    14.936314146199727
_cell_length_c    13.341276283792837
_cell_angle_alpha    90.0
_cell_angle_beta    90.0
_cell_angle_gamma    119.99999999999984

_symmetry_space_group_name_H-M    'P 1'
loop_
_atom_site_label
_atom_site_type_symbol
_atom_site_fract_x
_atom_site_fract_y
_atom_site_fract_z
_atom_site_occupancy
C2   C   0.610601449258491   0.389527690918945   0.375000000000000   1.0000000
C2   C   0.445592908327133   0.389527690918945   0.375000000000000   1.0000000
C2   C   0.552492190281119   0.438317713895567   0.375000000000000   1.0000000
N2   N   0.111105674932786   0.055542592772224   0.125091108390497   1.0000000
N2   N   0.611087481934481   0.555508297202291   0.124409054231265   1.0000000
N2   N   0.444439857565326   0.055546077931224   0.125143753935022   1.0000000
N2   N   0.944431943198595   0.555517216399115   0.125064227081699   1.0000000
N2   N   0.777772873779750   0.055547311959518   0.125022607401521   1.0000000
N2   N   0.111089419313422   0.722185870721375   0.624980175910986   1.0000000
N2   N   0.444430141335686   0.722178206464551   0.624826170242967   1.0000000
N2   N   0.277779338387692   0.222227252990117   0.624787988891639   1.0000000
N2   N   0.777756168064717   0.722194745172589   0.624622561663093   1.0000000
N2   N   0.611114581269097   0.222227252990117   0.624787988891639   1.0000000
N2   N   0.944439223701711   0.222211780736758   0.624928710169623   1.0000000
N2   N   0.277763118074625   0.722185870721375   0.125019824089015   1.0000000
N2   N   0.111099596569161   0.222209934945625   0.125115393239562   1.0000000
N2   N   0.444452386914509   0.222238107162352   0.125166824514801   1.0000000
N2   N   0.611105243774542   0.722194745172589   0.125377438336907   1.0000000
N2   N   0.944414731795537   0.722178206464551   0.125173829757034   1.0000000
N2   N   0.777777005043135   0.222209934945625   0.125115393239562   1.0000000
N2   N   0.111090950956796   0.888859616492315   0.624955420785136   1.0000000
N2   N   0.444435332202191   0.888859616492315   0.624955420785136   1.0000000
N2   N   0.277758177184814   0.388867503715474   0.624809884370273   1.0000000
N2   N   0.611124286343884   0.388870533071144   0.625304435029028   1.0000000
N2   N   0.777771708383857   0.888876750101043   0.624911309562750   1.0000000
N2   N   0.944440556665199   0.388868738949641   0.624914504054332   1.0000000
N2   N   0.111094848951114   0.388868738949641   0.125085495945668   1.0000000
N2   N   0.277764382231348   0.888862097796024   0.125044900963082   1.0000000
N2   N   0.611105402692741   0.888865638775615   0.125054011925685   1.0000000
N2   N   0.444412913393932   0.388870533071144   0.124695564970972   1.0000000
N2   N   0.944426902749545   0.888865638775615   0.125054011925685   1.0000000
N2   N   0.777775993197324   0.388867503715474   0.125190115629727   1.0000000
N2   N   0.277751939867191   0.555517216399115   0.624935772918301   1.0000000
N2   N   0.111105674932786   0.055542592772224   0.624908891609503   1.0000000
N2   N   0.611087481934481   0.555508297202291   0.625590945768735   1.0000000
N2   N   0.444439857565326   0.055546077931224   0.624856246064977   1.0000000
N2   N   0.944431943198595   0.555517216399115   0.624935772918301   1.0000000
N2   N   0.111094111043577   0.555521555420490   0.125000074452696   1.0000000
N2   N   0.777772873779750   0.055547311959518   0.624977392598479   1.0000000
N2   N   0.277772887032562   0.055546077931224   0.125143753935022   1.0000000
N2   N   0.444403238506722   0.555501739234109   0.125262940813715   1.0000000
N2   N   0.777765167394051   0.555501739234109   0.125262940813715   1.0000000
N2   N   0.611103584506116   0.055542592772224   0.125091108390497   1.0000000
N2   N   0.444403238506722   0.555501739234109   0.624737059186285   1.0000000
N2   N   0.944441104846426   0.055547311959518   0.125022607401521   1.0000000
N2   N   0.277763118074625   0.722185870721375   0.624980175910986   1.0000000
N2   N   0.111099596569161   0.222209934945625   0.624884606760438   1.0000000
N2   N   0.444452386914509   0.222238107162352   0.624833175485199   1.0000000
N2   N   0.611105243774542   0.722194745172589   0.624622561663093   1.0000000
N2   N   0.944414731795537   0.722178206464551   0.624826170242967   1.0000000
N2   N   0.777777005043135   0.222209934945625   0.624884606760438   1.0000000
N2   N   0.111089419313422   0.722185870721375   0.125019824089015   1.0000000
N2   N   0.444430141335686   0.722178206464551   0.125173829757034   1.0000000
N2   N   0.277779338387692   0.222227252990117   0.125212011108362   1.0000000
N2   N   0.777756168064717   0.722194745172589   0.125377438336907   1.0000000
N2   N   0.611114581269097   0.222227252990117   0.125212011108362   1.0000000
N2   N   0.944439223701711   0.222211780736758   0.125071289830377   1.0000000
N2   N   0.111094848951114   0.388868738949641   0.624914504054332   1.0000000
N2   N   0.277764382231348   0.888862097796024   0.624955099036919   1.0000000
N2   N   0.611105402692741   0.888865638775615   0.624945988074315   1.0000000
N2   N   0.444412913393932   0.388870533071144   0.625304435029028   1.0000000
N2   N   0.944426902749545   0.888865638775615   0.624945988074315   1.0000000
N2   N   0.111090950956796   0.888859616492315   0.125044579214863   1.0000000
N2   N   0.777775993197324   0.388867503715474   0.624809884370273   1.0000000
N2   N   0.444435332202191   0.888859616492315   0.125044579214863   1.0000000
N2   N   0.277758177184814   0.388867503715474   0.125190115629727   1.0000000
N2   N   0.277751939867191   0.555517216399115   0.125064227081699   1.0000000
N2   N   0.611124286343884   0.388870533071144   0.124695564970972   1.0000000
N2   N   0.777771708383857   0.888876750101043   0.125088690437250   1.0000000
N2   N   0.944440556665199   0.388868738949641   0.125085495945668   1.0000000
N2   N   0.111094111043577   0.555521555420490   0.624999925547305   1.0000000
N2   N   0.277772887032562   0.055546077931224   0.624856246064977   1.0000000
N2   N   0.777765167394051   0.555501739234109   0.624737059186285   1.0000000
N2   N   0.611103584506116   0.055542592772224   0.624908891609503   1.0000000
N2   N   0.944441104846426   0.055547311959518   0.624977392598479   1.0000000
N2   N   0.055570605628596   0.110985128198702   0.375000000000000   1.0000000
N2   N   0.552242235975000   0.611417127689945   0.375000000000000   1.0000000
N2   N   0.390575422184673   0.114484177702690   0.375000000000000   1.0000000
N2   N   0.889271451160639   0.609810523832891   0.375000000000000   1.0000000
N2   N   0.722081189236771   0.110985128198702   0.375000000000000   1.0000000
N2   N   0.055561209587023   0.777784280682502   0.875000000000000   1.0000000
N2   N   0.388889737762144   0.777784280682502   0.875000000000000   1.0000000
N2   N   0.222223621146149   0.277773862902746   0.875000000000000   1.0000000
N2   N   0.722223224419497   0.777779782172328   0.875000000000000   1.0000000
N2   N   0.555550748431006   0.277771913668146   0.875000000000000   1.0000000
N2   N   0.888885971147767   0.277774781953662   0.875000000000000   1.0000000
N2   N   0.222499564250166   0.778332461833662   0.375000000000000   1.0000000
N2   N   0.055385063404905   0.277494254166532   0.375000000000000   1.0000000
N2   N   0.390511017965709   0.282135879317047   0.375000000000000   1.0000000
N2   N   0.555196476579040   0.778378704399747   0.375000000000000   1.0000000
N2   N   0.889848894487371   0.778378704399747   0.375000000000000   1.0000000
N2   N   0.722311611617345   0.277403862820898   0.375000000000000   1.0000000
N2   N   0.055558975266698   0.944447168301280   0.875000000000000   1.0000000
N2   N   0.388890038401319   0.944447389784177   0.875000000000000   1.0000000
N2   N   0.222222524866286   0.444444334248592   0.875000000000000   1.0000000
N2   N   0.555553476642353   0.444440286618042   0.875000000000000   1.0000000
N2   N   0.722219969577304   0.944444155060135   0.875000000000000   1.0000000
N2   N   0.888888476048971   0.444444334248592   0.875000000000000   1.0000000
N2   N   0.055355156725369   0.444043646784067   0.375000000000000   1.0000000
N2   N   0.223207454895775   0.945835600535265   0.375000000000000   1.0000000
N2   N   0.555425501137017   0.945254265115333   0.375000000000000   1.0000000
N2   N   0.390585515311694   0.441173686357936   0.375000000000000   1.0000000
N2   N   0.888855768889317   0.944200640913235   0.375000000000000   1.0000000
N2   N   0.717254837712906   0.441173686357936   0.375000000000000   1.0000000
N2   N   0.222221598973408   0.611112802476518   0.875000000000000   1.0000000
N2   N   0.055556025724386   0.111106182470910   0.875000000000000   1.0000000
N2   N   0.555553402103306   0.611113677202833   0.875000000000000   1.0000000
N2   N   0.388886493530905   0.111106320395154   0.875000000000000   1.0000000
N2   N   0.888892679709884   0.611114258894199   0.875000000000000   1.0000000
N2   N   0.055749239719745   0.610929786803475   0.375000000000000   1.0000000
N2   N   0.722216823413181   0.111106182470910   0.875000000000000   1.0000000
N2   N   0.223603560523466   0.112726358423756   0.375000000000000   1.0000000
N2   N   0.387205739338909   0.609810523832891   0.375000000000000   1.0000000
N2   N   0.725841558381609   0.611417127689945   0.375000000000000   1.0000000
N2   N   0.555789464566955   0.112726358423756   0.375000000000000   1.0000000
N2   N   0.388888245850971   0.611114258894199   0.875000000000000   1.0000000
N2   N   0.888749048630167   0.110831430593683   0.375000000000000   1.0000000
N2   N   0.222224934970864   0.777783203275070   0.875000000000000   1.0000000
N2   N   0.055555477472553   0.277774781953662   0.875000000000000   1.0000000
N2   N   0.388887831903803   0.277771913668146   0.875000000000000   1.0000000
N2   N   0.555553860219383   0.777781389159128   0.875000000000000   1.0000000
N2   N   0.888894195606409   0.777781389159128   0.875000000000000   1.0000000
N2   N   0.722216908423254   0.277773862902746   0.875000000000000   1.0000000
N2   N   0.055937678273139   0.778024071161271   0.375000000000000   1.0000000
N2   N   0.388753059554796   0.778024071161271   0.375000000000000   1.0000000
N2   N   0.221758917870217   0.277403862820898   0.375000000000000   1.0000000
N2   N   0.721882271814277   0.777097876961890   0.375000000000000   1.0000000
N2   N   0.558291528018002   0.282135879317047   0.375000000000000   1.0000000
N2   N   0.888775857428283   0.277494254166532   0.375000000000000   1.0000000
N2   N   0.055555423123048   0.444444179579425   0.875000000000000   1.0000000
N2   N   0.222224018049523   0.944447389784177   0.875000000000000   1.0000000
N2   N   0.555554859701253   0.944447168301280   0.875000000000000   1.0000000
N2   N   0.388889688281813   0.444444399217956   0.875000000000000   1.0000000
N2   N   0.888890852149495   0.944444155060135   0.875000000000000   1.0000000
N2   N   0.056495430644994   0.945254265115333   0.375000000000000   1.0000000
N2   N   0.722221377602808   0.444444399217956   0.875000000000000   1.0000000
N2   N   0.389294812306154   0.945835600535265   0.375000000000000   1.0000000
N2   N   0.222928402840419   0.443772500178512   0.375000000000000   1.0000000
N2   N   0.221847213750394   0.610929786803475   0.375000000000000   1.0000000
N2   N   0.722011538690582   0.944200640913235   0.375000000000000   1.0000000
N2   N   0.887510764004757   0.443772500178512   0.375000000000000   1.0000000
N2   N   0.055557870169768   0.611112802476518   0.875000000000000   1.0000000
N2   N   0.222222081280534   0.111107125000548   0.875000000000000   1.0000000
N2   N   0.722226941766191   0.611113677202833   0.875000000000000   1.0000000
N2   N   0.555551710386678   0.111107125000548   0.875000000000000   1.0000000
N2   N   0.888886563982335   0.111106461298011   0.875000000000000   1.0000000
B2   B   0.111600999095593   0.056015104592222   0.375000000000000   1.0000000
B2   B   0.444794292335099   0.056972992630987   0.375000000000000   1.0000000
B2   B   0.944697749137315   0.555308970542129   0.375000000000000   1.0000000
B2   B   0.777519233036649   0.054903946344746   0.375000000000000   1.0000000
B2   B   0.111102526789295   0.722225276350768   0.875000000000000   1.0000000
B2   B   0.444470780587008   0.722221294731220   0.875000000000000   1.0000000
B2   B   0.277785708200921   0.222228027698086   0.875000000000000   1.0000000
B2   B   0.777750920091865   0.722202456922091   0.875000000000000   1.0000000
B2   B   0.611108986163837   0.222228027698086   0.875000000000000   1.0000000
B2   B   0.944435894827727   0.222205122988798   0.875000000000000   1.0000000
B2   B   0.277764916740156   0.722358045262385   0.375000000000000   1.0000000
B2   B   0.110252938284290   0.221625255583007   0.375000000000000   1.0000000
B2   B   0.446138489968758   0.225610313270851   0.375000000000000   1.0000000
B2   B   0.609683563505653   0.720026580027312   0.375000000000000   1.0000000
B2   B   0.944219426845854   0.721828601266749   0.375000000000000   1.0000000
B2   B   0.778038983965389   0.221625255583007   0.375000000000000   1.0000000
B2   B   0.111086580507561   0.888871257507012   0.875000000000000   1.0000000
B2   B   0.444451343666128   0.888871257507012   0.875000000000000   1.0000000
B2   B   0.277816295466510   0.388922388314237   0.875000000000000   1.0000000
B2   B   0.611117663373158   0.388945380860128   0.875000000000000   1.0000000
B2   B   0.777752696127926   0.888838725589180   0.875000000000000   1.0000000
B2   B   0.944444739323501   0.388901937634258   0.875000000000000   1.0000000
B2   B   0.111292308164783   0.388577250450984   0.375000000000000   1.0000000
B2   B   0.278123467982413   0.889580269298162   0.375000000000000   1.0000000
B2   B   0.610715249552948   0.888862313109001   0.375000000000000   1.0000000
B2   B   0.944813730222725   0.888862313109001   0.375000000000000   1.0000000
B2   B   0.776319200440544   0.387710521422962   0.375000000000000   1.0000000
B2   B   0.277814178686074   0.555582187457525   0.875000000000000   1.0000000
B2   B   0.111087187541844   0.055528186968370   0.875000000000000   1.0000000
B2   B   0.611129453820988   0.555592240975305   0.875000000000000   1.0000000
B2   B   0.444440429154908   0.055539014779615   0.875000000000000   1.0000000
B2   B   0.944434675438116   0.555582187457525   0.875000000000000   1.0000000
B2   B   0.111033056340991   0.555399446015304   0.375000000000000   1.0000000
B2   B   0.777762461826056   0.055513951377854   0.875000000000000   1.0000000
B2   B   0.278845366962560   0.056972992630987   0.375000000000000   1.0000000
B2   B   0.445982481648550   0.556509742777497   0.375000000000000   1.0000000
B2   B   0.777193927795604   0.556509742777497   0.375000000000000   1.0000000
B2   B   0.611080772163300   0.056015104592222   0.375000000000000   1.0000000
B2   B   0.444502178162611   0.555597284316680   0.875000000000000   1.0000000
B2   B   0.944051379974768   0.054903946344746   0.375000000000000   1.0000000
B2   B   0.277789416228138   0.722225276350768   0.875000000000000   1.0000000
B2   B   0.111106668006140   0.222211237551895   0.875000000000000   1.0000000
B2   B   0.444451007184014   0.222235347701356   0.875000000000000   1.0000000
B2   B   0.611118203496903   0.722202456922091   0.875000000000000   1.0000000
B2   B   0.944417180810876   0.722221294731220   0.875000000000000   1.0000000
B2   B   0.777771236212427   0.222211237551895   0.875000000000000   1.0000000
B2   B   0.111259795188907   0.722358045262385   0.375000000000000   1.0000000
B2   B   0.444275841087560   0.721828601266749   0.375000000000000   1.0000000
B2   B   0.277366929329091   0.223187714507563   0.375000000000000   1.0000000
B2   B   0.777009683188330   0.720026580027312   0.375000000000000   1.0000000
B2   B   0.612487451845143   0.223187714507563   0.375000000000000   1.0000000
B2   B   0.944218299330114   0.221769931993558   0.375000000000000   1.0000000
B2   B   0.111123864977435   0.388901937634258   0.875000000000000   1.0000000
B2   B   0.277770866114198   0.888875065561717   0.875000000000000   1.0000000
B2   B   0.611109063397134   0.888851923982126   0.875000000000000   1.0000000
B2   B   0.444494384153641   0.388945380860128   0.875000000000000   1.0000000
B2   B   0.944409527251664   0.888851923982126   0.875000000000000   1.0000000
B2   B   0.111589110021103   0.889330129983885   0.375000000000000   1.0000000
B2   B   0.777772759514399   0.388922388314237   0.875000000000000   1.0000000
B2   B   0.444407686629453   0.889330129983885   0.375000000000000   1.0000000
B2   B   0.278057987649089   0.387710521422962   0.375000000000000   1.0000000
B2   B   0.277277888071471   0.555308970542129   0.375000000000000   1.0000000
B2   B   0.777173480884354   0.887680295102042   0.375000000000000   1.0000000
B2   B   0.943951608952872   0.388577250450984   0.375000000000000   1.0000000
B2   B   0.111119956629024   0.555573246591376   0.875000000000000   1.0000000
B2   B   0.277765252291372   0.055539014779615   0.875000000000000   1.0000000
B2   B   0.777761772820733   0.555597284316680   0.875000000000000   1.0000000
B2   B   0.611107666093198   0.055528186968370   0.875000000000000   1.0000000
B2   B   0.944418156218463   0.055513951377854   0.875000000000000   1.0000000
B2   B   0.055484863341950   0.111052442151591   0.124987517840405   1.0000000
B2   B   0.555701085483763   0.611042266955496   0.126032414365575   1.0000000
B2   B   0.388875467344170   0.111084268021675   0.124954879133247   1.0000000
B2   B   0.888761938089435   0.611073128838494   0.125280176455150   1.0000000
B2   B   0.722234245476305   0.111052442151591   0.124987517840405   1.0000000
B2   B   0.055427993685594   0.777676626555693   0.624930834131560   1.0000000
B2   B   0.388915299536764   0.777676626555693   0.624930834131560   1.0000000
B2   B   0.222196826720850   0.277822379478053   0.625062345440152   1.0000000
B2   B   0.722142933396577   0.777619200126490   0.624425688216599   1.0000000
B2   B   0.555660876818271   0.277955363014767   0.625405849844192   1.0000000
B2   B   0.888912168292752   0.277782012895322   0.625002366836070   1.0000000
B2   B   0.222179493331206   0.777692319995748   0.124992017335633   1.0000000
B2   B   0.055536511269228   0.277782012895322   0.124997633163931   1.0000000
B2   B   0.388961152863161   0.277955363014767   0.124594150155809   1.0000000
B2   B   0.555611092154254   0.777641650465618   0.125382062793530   1.0000000
B2   B   0.888697224978028   0.777641650465618   0.125382062793530   1.0000000
B2   B   0.722292219423867   0.277822379478053   0.124937654559848   1.0000000
B2   B   0.055429101476379   0.944330160824473   0.624969475870657   1.0000000
B2   B   0.388867438788906   0.944342634788759   0.625003912387954   1.0000000
B2   B   0.222237063506794   0.444487599515877   0.624979800372810   1.0000000
B2   B   0.555713894407592   0.444761122148506   0.624860368717239   1.0000000
B2   B   0.722200888982512   0.944325349750819   0.624921291664606   1.0000000
B2   B   0.888917202675747   0.444487599515877   0.624979800372810   1.0000000
B2   B   0.055562395534359   0.444458124402039   0.124992865679070   1.0000000
B2   B   0.222141862666518   0.944342634788759   0.124996087612046   1.0000000
B2   B   0.555567726014766   0.944330160824473   0.125030524129343   1.0000000
B2   B   0.389022736105517   0.444581545583545   0.124905167976074   1.0000000
B2   B   0.888791127434972   0.944325349750819   0.125078708335394   1.0000000
B2   B   0.722225476144700   0.444581545583545   0.124905167976074   1.0000000
B2   B   0.222230023234449   0.611078296713311   0.624997593006656   1.0000000
B2   B   0.055484863341950   0.111052442151591   0.625012482159596   1.0000000
B2   B   0.555701085483763   0.611042266955496   0.623967585634424   1.0000000
B2   B   0.388875467344170   0.111084268021675   0.625045120866753   1.0000000
B2   B   0.888761938089435   0.611073128838494   0.624719823544850   1.0000000
B2   B   0.055514940145533   0.611078296713311   0.125002406993344   1.0000000
B2   B   0.722234245476305   0.111052442151591   0.625012482159596   1.0000000
B2   B   0.222159814262850   0.111063179866725   0.124975177888125   1.0000000
B2   B   0.388977857415716   0.611073128838494   0.125280176455150   1.0000000
B2   B   0.722007848138398   0.611042266955496   0.126032414365575   1.0000000
B2   B   0.555570032270540   0.111063179866725   0.124975177888125   1.0000000
B2   B   0.388977857415716   0.611073128838494   0.624719823544850   1.0000000
B2   B   0.888859740940158   0.111052815213660   0.124995190472208   1.0000000
B2   B   0.222179493331206   0.777692319995748   0.625007982664367   1.0000000
B2   B   0.055536511269228   0.277782012895322   0.625002366836070   1.0000000
B2   B   0.388961152863161   0.277955363014767   0.625405849844192   1.0000000
B2   B   0.555611092154254   0.777641650465618   0.624617937206471   1.0000000
B2   B   0.888697224978028   0.777641650465618   0.624617937206471   1.0000000
B2   B   0.722292219423867   0.277822379478053   0.625062345440152   1.0000000
B2   B   0.055427993685594   0.777676626555693   0.125069165868441   1.0000000
B2   B   0.388915299536764   0.777676626555693   0.125069165868441   1.0000000
B2   B   0.222196826720850   0.277822379478053   0.124937654559848   1.0000000
B2   B   0.722142933396577   0.777619200126490   0.125574311783401   1.0000000
B2   B   0.555660876818271   0.277955363014767   0.124594150155809   1.0000000
B2   B   0.888912168292752   0.277782012895322   0.124997633163931   1.0000000
B2   B   0.055562395534359   0.444458124402039   0.625007134320929   1.0000000
B2   B   0.222141862666518   0.944342634788759   0.625003912387954   1.0000000
B2   B   0.555567726014766   0.944330160824473   0.624969475870657   1.0000000
B2   B   0.389022736105517   0.444581545583545   0.625094832023919   1.0000000
B2   B   0.888791127434972   0.944325349750819   0.624921291664606   1.0000000
B2   B   0.055429101476379   0.944330160824473   0.125030524129343   1.0000000
B2   B   0.722225476144700   0.444581545583545   0.625094832023919   1.0000000
B2   B   0.388867438788906   0.944342634788759   0.124996087612046   1.0000000
B2   B   0.222237063506794   0.444487599515877   0.125020199627190   1.0000000
B2   B   0.222230023234449   0.611078296713311   0.125002406993344   1.0000000
B2   B   0.555713894407592   0.444761122148506   0.125139631282761   1.0000000
B2   B   0.722200888982512   0.944325349750819   0.125078708335394   1.0000000
B2   B   0.888917202675747   0.444487599515877   0.125020199627190   1.0000000
B2   B   0.055514940145533   0.611078296713311   0.624997593006656   1.0000000
B2   B   0.222159814262850   0.111063179866725   0.625024822111875   1.0000000
B2   B   0.722007848138398   0.611042266955496   0.623967585634424   1.0000000
B2   B   0.555570032270540   0.111063179866725   0.625024822111875   1.0000000
B2   B   0.888859740940158   0.111052815213660   0.625004809527791   1.0000000


