data_1
_audit_creation_method   'vasp2cif'
_cell_length_a    17.52789999999977
_cell_length_b    17.52789999999977
_cell_length_c    15.0
_cell_angle_alpha    90.0
_cell_angle_beta    90.0
_cell_angle_gamma    119.99999999999916

_symmetry_space_group_name_H-M    'P 1'
loop_
_atom_site_label
_atom_site_type_symbol
_atom_site_fract_x
_atom_site_fract_y
_atom_site_fract_z
_atom_site_occupancy
As2   As   0.523479834539912   0.493965492817591   0.111321117209999   1.0000000
B2   B   0.907252057137006   0.953803355373639   0.110972350818386   1.0000000
B2   B   0.903324569338293   0.093634209659883   0.111035589369870   1.0000000
B2   B   0.902359694667267   0.235921493055780   0.111026009091352   1.0000000
B2   B   0.903163966086234   0.379424717805038   0.110961888249045   1.0000000
B2   B   0.906907103530678   0.523959629529023   0.110979044719059   1.0000000
B2   B   0.911258415242281   0.669068933904494   0.110980236920459   1.0000000
B2   B   0.911955712415229   0.813911207651890   0.110970953218088   1.0000000
B2   B   0.050658974636901   0.954329722165765   0.110934996751351   1.0000000
B2   B   0.047755550336990   0.095461526235701   0.110934361852407   1.0000000
B2   B   0.044718095876825   0.236181455281114   0.110929446214416   1.0000000
B2   B   0.044016161189058   0.378988607190557   0.110917939920013   1.0000000
B2   B   0.045687102039253   0.523187018358718   0.110944019977055   1.0000000
B2   B   0.049507900259447   0.667625958320517   0.111003646365297   1.0000000
B2   B   0.051445370797609   0.811562347464326   0.111020001641400   1.0000000
B2   B   0.192487476058928   0.953494635625114   0.111005836490954   1.0000000
B2   B   0.190500560421429   0.095178340982653   0.111028380743714   1.0000000
B2   B   0.188602439115283   0.237737354594197   0.111037844033072   1.0000000
B2   B   0.185031432133049   0.378600386986487   0.110974832467185   1.0000000
B2   B   0.184281668686198   0.522709564923511   0.110960546923043   1.0000000
B2   B   0.188538848770924   0.666849655320509   0.111049333867135   1.0000000
B2   B   0.191989952812577   0.810454505244594   0.111002478407100   1.0000000
B2   B   0.334320076384236   0.952436497252588   0.111003385862619   1.0000000
B2   B   0.333963531949259   0.095384527654436   0.111089831162367   1.0000000
B2   B   0.330033987791262   0.235880889367143   0.111127801962626   1.0000000
B2   B   0.329630436706843   0.382022469407057   0.111153908794885   1.0000000
B2   B   0.320650605876449   0.521698670807675   0.111107179527736   1.0000000
B2   B   0.327481427883527   0.666371036154536   0.111063259031396   1.0000000
B2   B   0.333215015514158   0.809312167910844   0.111040172193298   1.0000000
B2   B   0.476143402929514   0.949557524759008   0.110970158308052   1.0000000
B2   B   0.476440654183332   0.093741422758956   0.111030595035345   1.0000000
B2   B   0.476167305170878   0.236746606790231   0.111086434136284   1.0000000
B2   B   0.468116492241061   0.371362814930390   0.111175984588706   1.0000000
B2   B   0.460188439427265   0.551807326468558   0.111299445605049   1.0000000
B2   B   0.464408614263342   0.653939909774465   0.111184794595034   1.0000000
B2   B   0.474852573519378   0.803778683700855   0.111043133264757   1.0000000
B2   B   0.617812772736739   0.948656244589900   0.111040120229676   1.0000000
B2   B   0.618297654097897   0.092937547147850   0.111016718665902   1.0000000
B2   B   0.618829915574686   0.237080602261216   0.110979177267662   1.0000000
B2   B   0.620242930485276   0.381763912830246   0.111027519175461   1.0000000
B2   B   0.641940735860965   0.536892751400804   0.111157703345635   1.0000000
B2   B   0.635263199295321   0.671853819283034   0.111322705168069   1.0000000
B2   B   0.617703687855391   0.804221941959012   0.111112865072562   1.0000000
B2   B   0.761115609246583   0.950177078669244   0.111080074251752   1.0000000
B2   B   0.760254736566679   0.092718772705298   0.111114398076879   1.0000000
B2   B   0.760565767588013   0.236166191106099   0.111031854222540   1.0000000
B2   B   0.762175151147571   0.380185648300093   0.110952913074308   1.0000000
B2   B   0.769144390559582   0.525641856644280   0.110973852554774   1.0000000
B2   B   0.777219152080225   0.674641545802103   0.111002347141750   1.0000000
B2   B   0.767970156980309   0.812436130713422   0.111052939109013   1.0000000
N2   N   0.956539023452773   0.907872009342602   0.110906019303819   1.0000000
N2   N   0.952891908075434   0.048106304871715   0.110932593516654   1.0000000
N2   N   0.949924376980685   0.188480071126318   0.110959369791043   1.0000000
N2   N   0.949501511826537   0.331053241963696   0.110929877452871   1.0000000
N2   N   0.951588509868274   0.474781448844331   0.110921548688309   1.0000000
N2   N   0.955543214688430   0.619435237742226   0.110959056207632   1.0000000
N2   N   0.957378084415316   0.764335315589826   0.110964516542269   1.0000000
N2   N   0.097952760629396   0.906472923863899   0.110946487747406   1.0000000
N2   N   0.096167131438734   0.048608537568645   0.110899581641995   1.0000000
N2   N   0.093782514076568   0.190110920810091   0.110918055224592   1.0000000
N2   N   0.090826958502746   0.330876495877190   0.110876701718984   1.0000000
N2   N   0.090647904526415   0.474227607641212   0.110884213448599   1.0000000
N2   N   0.094359384193561   0.618582134878534   0.110965545560754   1.0000000
N2   N   0.097455553715087   0.762896155226794   0.110978325484984   1.0000000
N2   N   0.239549136059828   0.905485510817442   0.110959431160288   1.0000000
N2   N   0.239063317991766   0.048364792673058   0.111016070932236   1.0000000
N2   N   0.235961448681001   0.189567600827546   0.111053401349073   1.0000000
N2   N   0.234553697337174   0.332843021101840   0.111034662185320   1.0000000
N2   N   0.228473068949346   0.473214614815683   0.110961022588167   1.0000000
N2   N   0.233251025807941   0.617969711816410   0.110997444860281   1.0000000
N2   N   0.238198092669311   0.762040985531253   0.111004731077688   1.0000000
N2   N   0.381254632560733   0.904115741259981   0.110959758365881   1.0000000
N2   N   0.381523286085350   0.047475500853340   0.111013850402921   1.0000000
N2   N   0.380581228721106   0.190448554015450   0.111087949478710   1.0000000
N2   N   0.374732515641006   0.330248515463906   0.111132346625702   1.0000000
N2   N   0.370183878245576   0.478001835283052   0.111186348418412   1.0000000
N2   N   0.370821185376574   0.616976924128404   0.111088163883573   1.0000000
N2   N   0.379500928988987   0.760695784646810   0.111024947754295   1.0000000
N2   N   0.522722662671007   0.900114696162052   0.110959701663062   1.0000000
N2   N   0.523414763350333   0.045181539319517   0.110950179013745   1.0000000
N2   N   0.523710974651403   0.189096760882672   0.110996494281865   1.0000000
N2   N   0.523542814071727   0.331999904424456   0.111061922323333   1.0000000
N2   N   0.520567119491093   0.752010176640245   0.111098423408924   1.0000000
N2   N   0.665015576236149   0.900343451079292   0.111043977982481   1.0000000
N2   N   0.665168683644503   0.044396198168366   0.111030014927548   1.0000000
N2   N   0.665617799692848   0.188565475053244   0.110968354948468   1.0000000
N2   N   0.666677220041871   0.332885932017307   0.110939002957635   1.0000000
N2   N   0.674793958059104   0.478164177532805   0.111002950008070   1.0000000
N2   N   0.685854576293800   0.629502265401115   0.111098209171135   1.0000000
N2   N   0.672626196371765   0.763734444192172   0.111097952260935   1.0000000
N2   N   0.812317921654952   0.906273422554170   0.111004016833694   1.0000000
N2   N   0.807998681663235   0.045342059045548   0.111063147075567   1.0000000
N2   N   0.807465329473741   0.188021001027771   0.111053423274453   1.0000000
N2   N   0.808270590277385   0.331528211400163   0.110938982055706   1.0000000
N2   N   0.812658614394913   0.475715629252082   0.110929090440894   1.0000000
N2   N   0.817932129383413   0.621478906671463   0.110938108218009   1.0000000
N2   N   0.818640166182059   0.767929117138776   0.110976054745473   1.0000000


