data_1
_audit_creation_method   'vasp2cif'
_cell_length_a    17.52789999999977
_cell_length_b    17.52789999999977
_cell_length_c    15.0
_cell_angle_alpha    90.0
_cell_angle_beta    90.0
_cell_angle_gamma    119.99999999999916

_symmetry_space_group_name_H-M    'P 1'
loop_
_atom_site_label
_atom_site_type_symbol
_atom_site_fract_x
_atom_site_fract_y
_atom_site_fract_z
_atom_site_occupancy
B2   B   0.905788368126043   0.953651416247857   0.111013965634394   1.0000000
B2   B   0.904392153812330   0.095792250235537   0.111021736488799   1.0000000
B2   B   0.904022339621044   0.238480552751603   0.111041416196589   1.0000000
B2   B   0.904110738362566   0.381206530165888   0.110982474778314   1.0000000
B2   B   0.904708762190878   0.524064099362874   0.110988055745788   1.0000000
B2   B   0.906260729575259   0.667424587107024   0.111067851258648   1.0000000
B2   B   0.907346289431981   0.811541810526398   0.111030776589569   1.0000000
B2   B   0.048002761520451   0.952092434282642   0.111038221736758   1.0000000
B2   B   0.046544739716940   0.094382333072672   0.111016340309535   1.0000000
B2   B   0.046186853191234   0.237597507270806   0.111001296590381   1.0000000
B2   B   0.046730483467969   0.380810393578677   0.111002551598285   1.0000000
B2   B   0.047777485502822   0.523646961763740   0.111012459089684   1.0000000
B2   B   0.048471414447287   0.666473099892553   0.111066132732666   1.0000000
B2   B   0.048662066704564   0.809430040014269   0.111072660281055   1.0000000
B2   B   0.190603747091098   0.951331606603138   0.111076532067589   1.0000000
B2   B   0.188583819601075   0.092697938984852   0.111027109667545   1.0000000
B2   B   0.187009309326966   0.235003078082960   0.110955559364757   1.0000000
B2   B   0.188379031764967   0.379566080644657   0.110971859708103   1.0000000
B2   B   0.190926472862058   0.523062136547355   0.111035940093397   1.0000000
B2   B   0.191388433790948   0.666003647822052   0.111072168682468   1.0000000
B2   B   0.191233341925468   0.808832374792125   0.111045394446242   1.0000000
B2   B   0.333619733559398   0.951558513983659   0.111069429947802   1.0000000
B2   B   0.332591022166516   0.093613253692999   0.111054749585340   1.0000000
B2   B   0.328318449029245   0.232496359584596   0.110879586990474   1.0000000
B2   B   0.326602480838943   0.374905666452744   0.110815428174137   1.0000000
B2   B   0.334285271539315   0.522224744107208   0.110937003455622   1.0000000
B2   B   0.334614613907384   0.665515772557960   0.111074707695750   1.0000000
B2   B   0.334119695371085   0.808710332603100   0.111079737736756   1.0000000
B2   B   0.476503622816830   0.952360000344934   0.111004233856227   1.0000000
B2   B   0.476058755197767   0.095420782325108   0.110966103043595   1.0000000
B2   B   0.474932273784798   0.237587258793822   0.110903687144641   1.0000000
B2   B   0.465194028110192   0.368865510028283   0.111022143729177   1.0000000
B2   B   0.478000133364402   0.665935517632901   0.111009821455532   1.0000000
B2   B   0.477105538704515   0.809234466503545   0.111035424069902   1.0000000
B2   B   0.619361680459367   0.953447119795248   0.110997120737573   1.0000000
B2   B   0.618938383844478   0.096059382108068   0.110984159185282   1.0000000
B2   B   0.619139797806572   0.239285942013373   0.110981311126317   1.0000000
B2   B   0.618540513030383   0.382135383714738   0.110883677758640   1.0000000
B2   B   0.631625584250169   0.534999328791951   0.110638314889252   1.0000000
B2   B   0.625454365435242   0.673645925360860   0.110908437059139   1.0000000
B2   B   0.620665244327391   0.811840572298464   0.110961653943859   1.0000000
B2   B   0.762609110386327   0.954033932479292   0.110996025150060   1.0000000
B2   B   0.761681439208767   0.096144491909609   0.111053294283469   1.0000000
B2   B   0.761439510174202   0.238728287081076   0.111059619991026   1.0000000
B2   B   0.760917627426903   0.381007013190408   0.110990764097923   1.0000000
B2   B   0.762453935116392   0.525023111416905   0.110952752325347   1.0000000
B2   B   0.767357373378812   0.671865821214055   0.110933965256011   1.0000000
B2   B   0.765189215816015   0.813244798714180   0.110944190430637   1.0000000
N2   N   0.953565805864509   0.905998024752769   0.111013148307937   1.0000000
N2   N   0.952104687899960   0.048151284184325   0.110997621399251   1.0000000
N2   N   0.951478826318661   0.190696963260159   0.111010195780251   1.0000000
N2   N   0.951718028493065   0.333604932855992   0.110985281692109   1.0000000
N2   N   0.952391762270480   0.476471424635855   0.110951717411865   1.0000000
N2   N   0.953208610212616   0.619324871309678   0.111040717093376   1.0000000
N2   N   0.953755153276452   0.762624358178209   0.111058230896077   1.0000000
N2   N   0.095687408728949   0.904410258736061   0.111043223763499   1.0000000
N2   N   0.094202497223543   0.046607474268677   0.111016025317738   1.0000000
N2   N   0.092896444046113   0.189018557439867   0.110982776591804   1.0000000
N2   N   0.093689155408164   0.332722698367068   0.110986227875856   1.0000000
N2   N   0.095472779127012   0.475977048605669   0.111002378424850   1.0000000
N2   N   0.096039829574526   0.618807738805293   0.111038700858942   1.0000000
N2   N   0.096104016189317   0.761620910150068   0.111037701470774   1.0000000
N2   N   0.238483650214765   0.903985396938802   0.111046497124969   1.0000000
N2   N   0.237471395183808   0.046303049620009   0.111058704011410   1.0000000
N2   N   0.234404194337996   0.187065135116710   0.110929430612757   1.0000000
N2   N   0.233198413986680   0.329580010439599   0.110896574596830   1.0000000
N2   N   0.238305421591051   0.474878156369535   0.110983978592082   1.0000000
N2   N   0.239152041339482   0.618297259630682   0.111057093206665   1.0000000
N2   N   0.238906147849140   0.761210039612131   0.111053646563852   1.0000000
N2   N   0.381315110193296   0.904069783710885   0.111043288887273   1.0000000
N2   N   0.380771530383556   0.046853433138791   0.111028652038063   1.0000000
N2   N   0.379424987781049   0.188811242780947   0.110939063010154   1.0000000
N2   N   0.373122890493376   0.326787814852188   0.110791450673787   1.0000000
N2   N   0.375257358698467   0.468467925980881   0.110713892004695   1.0000000
N2   N   0.382532139528970   0.617589110002908   0.111000772046604   1.0000000
N2   N   0.381821048710799   0.760970514749264   0.111068582458882   1.0000000
N2   N   0.524173947914065   0.904712877743206   0.110993647906863   1.0000000
N2   N   0.523652778974448   0.047770545180616   0.110941176526341   1.0000000
N2   N   0.523183966834981   0.190982238016708   0.110926912999686   1.0000000
N2   N   0.522144305674602   0.334568882678610   0.110854531260440   1.0000000
N2   N   0.531629929787732   0.625066447808778   0.110911489780666   1.0000000
N2   N   0.525282199996982   0.761943435314393   0.110982727780519   1.0000000
N2   N   0.667474336425479   0.906563121058095   0.110973473141254   1.0000000
N2   N   0.666547395078176   0.048483389568042   0.110990664963629   1.0000000
N2   N   0.666295454971304   0.191122710906825   0.111006011804257   1.0000000
N2   N   0.666171230390767   0.333944636167386   0.110943291288889   1.0000000
N2   N   0.665558584023018   0.477495169039482   0.110863815213781   1.0000000
N2   N   0.673367228163410   0.627372810959804   0.110844189919501   1.0000000
N2   N   0.670646279048164   0.767143696651179   0.110890222268853   1.0000000
N2   N   0.811217750486192   0.907415936380000   0.110975331680005   1.0000000
N2   N   0.809511960775057   0.048762879542309   0.111017035231496   1.0000000
N2   N   0.809065156991308   0.191101955843359   0.111062609066801   1.0000000
N2   N   0.809059906891187   0.333821412474776   0.111007547137348   1.0000000
N2   N   0.809171000892076   0.476850567543143   0.110963858586794   1.0000000
N2   N   0.811159865498477   0.620611401784942   0.110971207052863   1.0000000
N2   N   0.813102388586590   0.765892624902501   0.110946652386105   1.0000000
Se2   Se   0.496506329013835   0.503189594186176   0.110725703508481   1.0000000


