data_1
_audit_creation_method   'vasp2cif'
_cell_length_a    14.93631414619966
_cell_length_b    14.936314146199727
_cell_length_c    13.341276283792837
_cell_angle_alpha    90.0
_cell_angle_beta    90.0
_cell_angle_gamma    119.99999999999984

_symmetry_space_group_name_H-M    'P 1'
loop_
_atom_site_label
_atom_site_type_symbol
_atom_site_fract_x
_atom_site_fract_y
_atom_site_fract_z
_atom_site_occupancy
Ge2   Ge   0.495351470116547   0.414342401724938   0.375000000000000   1.0000000
N2   N   0.111074678629296   0.055537852576794   0.124948374031799   1.0000000
N2   N   0.611209015117230   0.555735967982186   0.123380975898902   1.0000000
N2   N   0.444471155914988   0.055564558713505   0.124913282672673   1.0000000
N2   N   0.944425599944105   0.555536663995866   0.124905001759105   1.0000000
N2   N   0.777802387375702   0.055567860354520   0.124861092099872   1.0000000
N2   N   0.111101071863750   0.722217202598540   0.625103940160388   1.0000000
N2   N   0.444471155914988   0.722239930534819   0.625086717327326   1.0000000
N2   N   0.277672565046991   0.222163855455247   0.625509895511680   1.0000000
N2   N   0.777790443807195   0.722275469032694   0.625316823133020   1.0000000
N2   N   0.611146871685691   0.222186841585246   0.625390629233785   1.0000000
N2   N   0.944433709732015   0.222208784476649   0.625095248654480   1.0000000
N2   N   0.277789841979343   0.722224407542703   0.124912188534024   1.0000000
N2   N   0.111045768000508   0.222189550666918   0.124894104862015   1.0000000
N2   N   0.444459514077261   0.222225987208473   0.124543321395000   1.0000000
N2   N   0.611146871685691   0.722293363433772   0.124609370766215   1.0000000
N2   N   0.944425599944105   0.722222269281575   0.124905001759105   1.0000000
N2   N   0.777802134589089   0.222197127298088   0.124865538833623   1.0000000
N2   N   0.111102810753463   0.888892405537307   0.625098318843954   1.0000000
N2   N   0.444471705746247   0.888902519539786   0.625106453104534   1.0000000
N2   N   0.277672565046991   0.388842042925073   0.625509895511680   1.0000000
N2   N   0.611209015117230   0.388806380468372   0.626619024101097   1.0000000
N2   N   0.777802134589089   0.888938340624330   0.625134461166378   1.0000000
N2   N   0.944437549550530   0.388869936520901   0.625061424781667   1.0000000
N2   N   0.111074678629296   0.388870159385831   0.124948374031799   1.0000000
N2   N   0.277789841979343   0.888898767769967   0.124912188534024   1.0000000
N2   N   0.611143120407556   0.888923447222088   0.124887488002896   1.0000000
N2   N   0.444135074481506   0.388734203907417   0.122845929637190   1.0000000
N2   N   0.944437549550530   0.888900946362957   0.124938575218333   1.0000000
N2   N   0.777790443807195   0.388848308107828   0.124683176866980   1.0000000
N2   N   0.277781213037466   0.555549268822470   0.625087023814769   1.0000000
N2   N   0.111074678629296   0.055537852576794   0.625051625968199   1.0000000
N2   N   0.611209015117230   0.555735967982186   0.626619024101097   1.0000000
N2   N   0.444471155914988   0.055564558713505   0.625086717327326   1.0000000
N2   N   0.944425599944105   0.555536663995866   0.625094998240895   1.0000000
N2   N   0.111102810753463   0.555543738549483   0.124901681156046   1.0000000
N2   N   0.777802387375702   0.055567860354520   0.625138907900128   1.0000000
N2   N   0.277781213037466   0.055565277548331   0.124912976185231   1.0000000
N2   N   0.444459514077261   0.555566860202123   0.124543321395000   1.0000000
N2   N   0.777771720705141   0.555552527019238   0.124635961671438   1.0000000
N2   N   0.611143120407556   0.055553006518796   0.124887488002896   1.0000000
N2   N   0.444459514077261   0.555566860202123   0.625456678605000   1.0000000
N2   N   0.944433709732015   0.055558258588701   0.124904751345521   1.0000000
N2   N   0.277789841979343   0.722224407542703   0.625087811465976   1.0000000
N2   N   0.111045768000508   0.222189550666918   0.625105895137985   1.0000000
N2   N   0.444459514077261   0.222225987208473   0.625456678605000   1.0000000
N2   N   0.611146871685691   0.722293363433772   0.625390629233785   1.0000000
N2   N   0.944425599944105   0.722222269281575   0.625094998240895   1.0000000
N2   N   0.777802134589089   0.222197127298088   0.625134461166378   1.0000000
N2   N   0.111101071863749   0.722217202598540   0.124896059839611   1.0000000
N2   N   0.444471155914988   0.722239930534819   0.124913282672673   1.0000000
N2   N   0.277672565046991   0.222163855455247   0.124490104488321   1.0000000
N2   N   0.777790443807195   0.722275469032694   0.124683176866980   1.0000000
N2   N   0.611146871685691   0.222186841585246   0.124609370766215   1.0000000
N2   N   0.944433709732015   0.222208784476649   0.124904751345521   1.0000000
N2   N   0.111074678629296   0.388870159385831   0.625051625968199   1.0000000
N2   N   0.277789841979343   0.888898767769967   0.625087811465976   1.0000000
N2   N   0.611143120407556   0.888923447222088   0.625112511997104   1.0000000
N2   N   0.444135074481506   0.388734203907417   0.627154070362811   1.0000000
N2   N   0.944437549550530   0.888900946362957   0.625061424781667   1.0000000
N2   N   0.111102810753463   0.888892405537307   0.124901681156046   1.0000000
N2   N   0.777790443807195   0.388848308107828   0.625316823133020   1.0000000
N2   N   0.444471705746247   0.888902519539786   0.124893546895466   1.0000000
N2   N   0.277672565046991   0.388842042925073   0.124490104488321   1.0000000
N2   N   0.277781213037466   0.555549268822470   0.124912976185231   1.0000000
N2   N   0.611209015117230   0.388806380468372   0.123380975898902   1.0000000
N2   N   0.777802134589089   0.888938340624330   0.124865538833623   1.0000000
N2   N   0.944437549550530   0.388869936520901   0.124938575218333   1.0000000
N2   N   0.111102810753463   0.555543738549483   0.625098318843954   1.0000000
N2   N   0.277781213037466   0.055565277548331   0.625087023814769   1.0000000
N2   N   0.777771720705141   0.555552527019238   0.625364038328562   1.0000000
N2   N   0.611143120407556   0.055553006518796   0.625112511997104   1.0000000
N2   N   0.944433709732015   0.055558258588701   0.625095248654480   1.0000000
N2   N   0.058859922376133   0.112932241418584   0.375000000000000   1.0000000
N2   N   0.555667552073952   0.618566238475577   0.375000000000000   1.0000000
N2   N   0.388371127905055   0.105848806472323   0.375000000000000   1.0000000
N2   N   0.887021512218750   0.610177422776046   0.375000000000000   1.0000000
N2   N   0.724389227755960   0.111535903970544   0.375000000000000   1.0000000
N2   N   0.055554384382660   0.777776093605549   0.875000000000000   1.0000000
N2   N   0.388873307918938   0.777775510576076   0.875000000000000   1.0000000
N2   N   0.222217589010407   0.277775461171872   0.875000000000000   1.0000000
N2   N   0.722210742192565   0.777766728281109   0.875000000000000   1.0000000
N2   N   0.555535094438323   0.277762346883095   0.875000000000000   1.0000000
N2   N   0.888881965297395   0.277779121063135   0.875000000000000   1.0000000
N2   N   0.221175891576430   0.777254612454885   0.375000000000000   1.0000000
N2   N   0.058859922376133   0.279261014290885   0.375000000000000   1.0000000
N2   N   0.392719545165651   0.272547188064973   0.375000000000000   1.0000000
N2   N   0.556377599270737   0.781441664560175   0.375000000000000   1.0000000
N2   N   0.888644529200903   0.777825108833094   0.375000000000000   1.0000000
N2   N   0.723767941323099   0.276934171591267   0.375000000000000   1.0000000
N2   N   0.055547510692104   0.944435236879955   0.875000000000000   1.0000000
N2   N   0.388873307918938   0.944431130676199   0.875000000000000   1.0000000
N2   N   0.222210260873103   0.444447504859016   0.875000000000000   1.0000000
N2   N   0.555546209266692   0.444439771300010   0.875000000000000   1.0000000
N2   N   0.722207824882677   0.944435501712934   0.875000000000000   1.0000000
N2   N   0.888888898503375   0.444448430283672   0.875000000000000   1.0000000
N2   N   0.056417951145907   0.445029934491503   0.375000000000000   1.0000000
N2   N   0.221466824703002   0.942827263445801   0.375000000000000   1.0000000
N2   N   0.556544396165776   0.944938864749552   0.375000000000000   1.0000000
N2   N   0.392719545165651   0.453505690434013   0.375000000000000   1.0000000
N2   N   0.891154238442579   0.946093750045803   0.375000000000000   1.0000000
N2   N   0.720316871844859   0.442949017623212   0.375000000000000   1.0000000
N2   N   0.222207234247513   0.611110795937441   0.875000000000000   1.0000000
N2   N   0.055549030888952   0.111104567552665   0.875000000000000   1.0000000
N2   N   0.555535094438323   0.611106080888562   0.875000000000000   1.0000000
N2   N   0.388869366401704   0.111087681267867   0.875000000000000   1.0000000
N2   N   0.888902678681887   0.611118006007616   0.875000000000000   1.0000000
N2   N   0.054421834916755   0.610798860234665   0.375000000000000   1.0000000
N2   N   0.722207824882677   0.111105656503079   0.875000000000000   1.0000000
N2   N   0.224331227342670   0.111223939129041   0.375000000000000   1.0000000
N2   N   0.388371127905055   0.615855654766075   0.375000000000000   1.0000000
N2   N   0.720316871844860   0.610701187554983   0.375000000000000   1.0000000
N2   N   0.556377599270737   0.108269268043898   0.375000000000000   1.0000000
N2   N   0.388869366401704   0.611115018467179   0.875000000000000   1.0000000
N2   N   0.891800807300012   0.112567070316677   0.375000000000000   1.0000000
N2   N   0.222211475962353   0.777772404647845   0.875000000000000   1.0000000
N2   N   0.055549030888952   0.277777796669622   0.875000000000000   1.0000000
N2   N   0.388877213743750   0.277756038512500   0.875000000000000   1.0000000
N2   N   0.555537116329553   0.777771058785476   0.875000000000000   1.0000000
N2   N   0.888888898503375   0.777773801553037   0.875000000000000   1.0000000
N2   N   0.722210742192565   0.277777347244790   0.875000000000000   1.0000000
N2   N   0.054421834916755   0.776956308015426   0.375000000000000   1.0000000
N2   N   0.388532406329316   0.779170000335359   0.375000000000000   1.0000000
N2   N   0.227375744006848   0.280354538670092   0.375000000000000   1.0000000
N2   N   0.723767941323099   0.780167103065168   0.375000000000000   1.0000000
N2   N   0.555667552073952   0.270434646931712   0.375000000000000   1.0000000
N2   N   0.891154238442579   0.278393821730112   0.375000000000000   1.0000000
N2   N   0.055547510692104   0.444445607145478   0.875000000000000   1.0000000
N2   N   0.222207234247513   0.944429771643408   0.875000000000000   1.0000000
N2   N   0.555538540143694   0.944435936738511   0.875000000000000   1.0000000
N2   N   0.388877213743750   0.444454508564585   0.875000000000000   1.0000000
N2   N   0.888881965297395   0.944436177567597   0.875000000000000   1.0000000
N2   N   0.056417951145907   0.944721349987734   0.375000000000000   1.0000000
N2   N   0.722227986498904   0.444453047383777   0.875000000000000   1.0000000
N2   N   0.388532406329316   0.942695739327294   0.375000000000000   1.0000000
N2   N   0.224331227342670   0.446440621546965   0.375000000000000   1.0000000
N2   N   0.221466824703002   0.611972894590538   0.375000000000000   1.0000000
N2   N   0.724389227755960   0.946186657118751   0.375000000000000   1.0000000
N2   N   0.888644529200903   0.444152753701143   0.375000000000000   1.0000000
N2   N   0.055554384382660   0.611111624110446   0.875000000000000   1.0000000
N2   N   0.222210260873103   0.111096089347423   0.875000000000000   1.0000000
N2   N   0.722227986498904   0.611108272448462   0.875000000000000   1.0000000
N2   N   0.555537116329553   0.111099390877413   0.875000000000000   1.0000000
N2   N   0.888881550764756   0.111107442049050   0.875000000000000   1.0000000
B2   B   0.113572953443314   0.056444728168397   0.375000000000000   1.0000000
B2   B   0.608870318188265   0.561229816119588   0.375000000000000   1.0000000
B2   B   0.445017054050628   0.052865506330099   0.375000000000000   1.0000000
B2   B   0.943120817166530   0.555181781952477   0.375000000000000   1.0000000
B2   B   0.780543944609986   0.056938638971661   0.375000000000000   1.0000000
B2   B   0.111097059194759   0.722215196264044   0.875000000000000   1.0000000
B2   B   0.444426149869616   0.722177086996944   0.875000000000000   1.0000000
B2   B   0.277851317211374   0.222271290797929   0.875000000000000   1.0000000
B2   B   0.777718070550871   0.722135890197322   0.875000000000000   1.0000000
B2   B   0.611060940531833   0.222267745217836   0.875000000000000   1.0000000
B2   B   0.944453818533805   0.222237560448024   0.875000000000000   1.0000000
B2   B   0.277350629875363   0.722705926762555   0.375000000000000   1.0000000
B2   B   0.116196382282250   0.224764857807789   0.375000000000000   1.0000000
B2   B   0.444448627755346   0.215930135394492   0.375000000000000   1.0000000
B2   B   0.612481854578399   0.727117077464295   0.375000000000000   1.0000000
B2   B   0.943120817166530   0.721272368547385   0.375000000000000   1.0000000
B2   B   0.780004277483463   0.222608278748535   0.375000000000000   1.0000000
B2   B   0.111109960869921   0.888887303035260   0.875000000000000   1.0000000
B2   B   0.444422535348447   0.888877934340888   0.875000000000000   1.0000000
B2   B   0.277851317211374   0.388913359746773   0.875000000000000   1.0000000
B2   B   0.611047587050432   0.388922743385697   0.875000000000000   1.0000000
B2   B   0.777742602352510   0.888830108088424   0.875000000000000   1.0000000
B2   B   0.944429126572323   0.388904865526882   0.875000000000000   1.0000000
B2   B   0.113572953443314   0.390461558608246   0.375000000000000   1.0000000
B2   B   0.277350629875363   0.887978036446136   0.375000000000000   1.0000000
B2   B   0.612987590022423   0.891165766638604   0.375000000000000   1.0000000
B2   B   0.945298942903452   0.889244143528950   0.375000000000000   1.0000000
B2   B   0.777146496154369   0.388328211963599   0.375000000000000   1.0000000
B2   B   0.277797701893017   0.555544590514790   0.875000000000000   1.0000000
B2   B   0.111143343868009   0.055572508735710   0.875000000000000   1.0000000
B2   B   0.611047587050432   0.555458176998065   0.875000000000000   1.0000000
B2   B   0.444426149869616   0.055582396206008   0.875000000000000   1.0000000
B2   B   0.944411415394997   0.555553145856354   0.875000000000000   1.0000000
B2   B   0.110672716683814   0.555955168788564   0.375000000000000   1.0000000
B2   B   0.777756571530187   0.055544952431762   0.875000000000000   1.0000000
B2   B   0.277948894502341   0.053840408506683   0.375000000000000   1.0000000
B2   B   0.444448627755346   0.561851825694189   0.375000000000000   1.0000000
B2   B   0.774855672110645   0.554094502721991   0.375000000000000   1.0000000
B2   B   0.612987590022423   0.055155156717147   0.375000000000000   1.0000000
B2   B   0.444451877430262   0.555509076834693   0.875000000000000   1.0000000
B2   B   0.947727018048785   0.057379137243897   0.375000000000000   1.0000000
B2   B   0.277772221006558   0.722210800552500   0.875000000000000   1.0000000
B2   B   0.111169159136885   0.222251246235107   0.875000000000000   1.0000000
B2   B   0.444451877430262   0.222276133928904   0.875000000000000   1.0000000
B2   B   0.611060940531833   0.722126528647327   0.875000000000000   1.0000000
B2   B   0.944411415394997   0.722191602871980   0.875000000000000   1.0000000
B2   B   0.777742602352510   0.222245827597414   0.875000000000000   1.0000000
B2   B   0.110065107227998   0.721699220280663   0.375000000000000   1.0000000
B2   B   0.445017054050628   0.725484881053865   0.375000000000000   1.0000000
B2   B   0.283513574937420   0.224068219870749   0.375000000000000   1.0000000
B2   B   0.777146496154369   0.722151617524099   0.375000000000000   1.0000000
B2   B   0.612481854578399   0.218698110447432   0.375000000000000   1.0000000
B2   B   0.947727018048785   0.223681214138224   0.375000000000000   1.0000000
B2   B   0.111143343868009   0.388904168465627   0.875000000000000   1.0000000
B2   B   0.277772221006558   0.888894753787386   0.875000000000000   1.0000000
B2   B   0.611075494851904   0.888845768277404   0.875000000000000   1.0000000
B2   B   0.444502144412566   0.388917738872947   0.875000000000000   1.0000000
B2   B   0.944429126572323   0.888857594378772   0.875000000000000   1.0000000
B2   B   0.110672716683814   0.888050881228578   0.375000000000000   1.0000000
B2   B   0.777718070550871   0.388915513686877   0.875000000000000   1.0000000
B2   B   0.445083938908068   0.889208636120699   0.375000000000000   1.0000000
B2   B   0.283513574937420   0.392778688400000   0.375000000000000   1.0000000
B2   B   0.277948894502340   0.557441819328993   0.375000000000000   1.0000000
B2   B   0.608870318188265   0.380973835402006   0.375000000000000   1.0000000
B2   B   0.780004277483463   0.890729332068258   0.375000000000000   1.0000000
B2   B   0.945298942903452   0.389388132707832   0.375000000000000   1.0000000
B2   B   0.111109960869921   0.555555991167989   0.875000000000000   1.0000000
B2   B   0.277797701893017   0.055586444711563   0.875000000000000   1.0000000
B2   B   0.777712433713090   0.555522883523212   0.875000000000000   1.0000000
B2   B   0.611075494851904   0.055563059907830   0.875000000000000   1.0000000
B2   B   0.944453818533805   0.055549591419118   0.875000000000000   1.0000000
B2   B   0.055593486179186   0.111153808334538   0.125109673744899   1.0000000
B2   B   0.555615941585918   0.610935328438648   0.124698062039865   1.0000000
B2   B   0.389006602230632   0.111356492073626   0.125139023469482   1.0000000
B2   B   0.888655002916772   0.610994168125057   0.125068716378943   1.0000000
B2   B   0.722233472577973   0.111130103287046   0.125015767814699   1.0000000
B2   B   0.055485852300547   0.777762570482625   0.624957673404794   1.0000000
B2   B   0.388951727663211   0.777747740877842   0.624933742454434   1.0000000
B2   B   0.222307282100877   0.277820307717106   0.625005816080693   1.0000000
B2   B   0.722161535434498   0.777704812711570   0.625057112180909   1.0000000
B2   B   0.555615941585918   0.278013946480607   0.625301937960134   1.0000000
B2   B   0.888871180220449   0.277762919323942   0.624949355394393   1.0000000
B2   B   0.222237691228615   0.777785512280976   0.125028945185289   1.0000000
B2   B   0.055593486179186   0.277773011177984   0.125109673744899   1.0000000
B2   B   0.388964819881572   0.277983196050986   0.124654042929816   1.0000000
B2   B   0.555599273163257   0.777713075006168   0.125030618552008   1.0000000
B2   B   0.888768290925302   0.777717619245590   0.125034507346326   1.0000000
B2   B   0.722161535434498   0.277790056056263   0.124942887819091   1.0000000
B2   B   0.055551699081723   0.944483598279682   0.624899710058227   1.0000000
B2   B   0.388951727663211   0.944537320118705   0.624933742454434   1.0000000
B2   B   0.222299026013414   0.444380704825651   0.624888341995655   1.0000000
B2   B   0.555430192909245   0.444381763121287   0.622795729840790   1.0000000
B2   B   0.722233472577973   0.944436702624263   0.624984232185302   1.0000000
B2   B   0.888768290925302   0.444384005013047   0.624965492653675   1.0000000
B2   B   0.055551699081723   0.444401434135369   0.125100289941773   1.0000000
B2   B   0.222273131210761   0.944557136312707   0.125083663414970   1.0000000
B2   B   0.555597484171217   0.944465408752274   0.125044530744011   1.0000000
B2   B   0.388964819881572   0.444314957163922   0.124654042929816   1.0000000
B2   B   0.888871180220449   0.944441594229845   0.125050644605608   1.0000000
B2   B   0.721914316826615   0.444313942198391   0.124637521758787   1.0000000
B2   B   0.222273131210761   0.611049328231389   0.624916336585031   1.0000000
B2   B   0.055593486179186   0.111153808334538   0.624890326255101   1.0000000
B2   B   0.555615941585918   0.610935328438648   0.625301937960134   1.0000000
B2   B   0.389006602230632   0.111356492073626   0.624860976530519   1.0000000
B2   B   0.888655002916772   0.610994168125057   0.624931283621056   1.0000000
B2   B   0.055485852300547   0.611056615151260   0.125042326595206   1.0000000
B2   B   0.722233472577973   0.111130103287046   0.624984232185302   1.0000000
B2   B   0.222299026013414   0.111251654521098   0.125111658004343   1.0000000
B2   B   0.389006602230632   0.610983443490350   0.125139023469482   1.0000000
B2   B   0.721914316826615   0.610933707961562   0.124637521758787   1.0000000
B2   B   0.555599273163257   0.111219531490424   0.125030618552008   1.0000000
B2   B   0.389006602230632   0.610983443490350   0.624860976530519   1.0000000
B2   B   0.888904699429681   0.111119016381511   0.125025915273791   1.0000000
B2   B   0.222237691228615   0.777785512280976   0.624971054814712   1.0000000
B2   B   0.055593486179186   0.277773011177984   0.624890326255101   1.0000000
B2   B   0.388964819881572   0.277983196050986   0.625345957070183   1.0000000
B2   B   0.555599273163257   0.777713075006168   0.624969381447993   1.0000000
B2   B   0.888768290925302   0.777717619245590   0.624965492653675   1.0000000
B2   B   0.722161535434498   0.277790056056263   0.625057112180909   1.0000000
B2   B   0.055485852300547   0.777762570482625   0.125042326595206   1.0000000
B2   B   0.388951727663211   0.777747740877842   0.125066257545568   1.0000000
B2   B   0.222307282100877   0.277820307717106   0.124994183919306   1.0000000
B2   B   0.722161535434498   0.777704812711570   0.124942887819091   1.0000000
B2   B   0.555615941585918   0.278013946480607   0.124698062039865   1.0000000
B2   B   0.888871180220449   0.277762919323942   0.125050644605608   1.0000000
B2   B   0.055551699081723   0.444401434135369   0.624899710058227   1.0000000
B2   B   0.222273131210761   0.944557136312707   0.624916336585031   1.0000000
B2   B   0.555597484171217   0.944465408752274   0.624955469255989   1.0000000
B2   B   0.388964819881572   0.444314957163922   0.625345957070183   1.0000000
B2   B   0.888871180220449   0.944441594229845   0.624949355394393   1.0000000
B2   B   0.055551699081723   0.944483598279682   0.125100289941773   1.0000000
B2   B   0.721914316826615   0.444313942198391   0.625362478241214   1.0000000
B2   B   0.388951727663211   0.944537320118705   0.125066257545568   1.0000000
B2   B   0.222299026013414   0.444380704825651   0.125111658004343   1.0000000
B2   B   0.222273131210761   0.611049328231389   0.125083663414970   1.0000000
B2   B   0.555430192909245   0.444381763121287   0.127204270159210   1.0000000
B2   B   0.722233472577973   0.944436702624263   0.125015767814699   1.0000000
B2   B   0.888768290925302   0.444384005013047   0.125034507346326   1.0000000
B2   B   0.055485852300547   0.611056615151260   0.624957673404794   1.0000000
B2   B   0.222299026013414   0.111251654521098   0.624888341995655   1.0000000
B2   B   0.721914316826615   0.610933707961562   0.625362478241214   1.0000000
B2   B   0.555599273163257   0.111219531490424   0.624969381447993   1.0000000
B2   B   0.888904699429681   0.111119016381511   0.624974084726210   1.0000000


