data_1
_audit_creation_method   'vasp2cif'
_cell_length_a    14.93631414619966
_cell_length_b    14.936314146199727
_cell_length_c    13.341276283792837
_cell_angle_alpha    90.0
_cell_angle_beta    90.0
_cell_angle_gamma    119.99999999999984

_symmetry_space_group_name_H-M    'P 1'
loop_
_atom_site_label
_atom_site_type_symbol
_atom_site_fract_x
_atom_site_fract_y
_atom_site_fract_z
_atom_site_occupancy
N2   N   0.444444444444443   0.388888888888886   0.375000000000000   1.0000000
N2   N   0.111111463212717   0.055556161982312   0.125088077508510   1.0000000
N2   N   0.611097741399339   0.555544916295380   0.125347656458494   1.0000000
N2   N   0.444444698769595   0.055556161982312   0.125088077508510   1.0000000
N2   N   0.944442697256574   0.555554269300366   0.125059109655176   1.0000000
N2   N   0.777777777777779   0.055555555555557   0.125028505627973   1.0000000
N2   N   0.111111111111114   0.722222222222221   0.624971298597678   1.0000000
N2   N   0.444444698769595   0.722221870120619   0.624911922491490   1.0000000
N2   N   0.277788417037956   0.222235591933997   0.624652343541506   1.0000000
N2   N   0.777777171351024   0.722221870120619   0.624911922491490   1.0000000
N2   N   0.611109188555096   0.222224144778240   0.624885111177323   1.0000000
N2   N   0.944447151336511   0.222225077046237   0.624939023955704   1.0000000
N2   N   0.277779064032970   0.722221761289552   0.125059109655176   1.0000000
N2   N   0.111114956223152   0.222224144778240   0.125114888822677   1.0000000
N2   N   0.444447174896034   0.222235591933997   0.125347656458494   1.0000000
N2   N   0.611109188555096   0.722218377110184   0.125114888822677   1.0000000
N2   N   0.944442697256574   0.722221761289552   0.125059109655176   1.0000000
N2   N   0.777777925709726   0.222225077046237   0.125060976044296   1.0000000
N2   N   0.111111572043784   0.888890636076754   0.624940890344824   1.0000000
N2   N   0.444443596068210   0.888888464700766   0.624936618166161   1.0000000
N2   N   0.277788417037956   0.388886158437295   0.624652343541506   1.0000000
N2   N   0.611097741399339   0.388886158437295   0.624652343541506   1.0000000
N2   N   0.777777925709726   0.888886181996817   0.624939023955704   1.0000000
N2   N   0.944444868632563   0.388889737265118   0.624936618166161   1.0000000
N2   N   0.111111463212717   0.388888634563733   0.125088077508510   1.0000000
N2   N   0.277779064032970   0.888890636076754   0.125059109655176   1.0000000
N2   N   0.611108256287098   0.888886181996817   0.125060976044296   1.0000000
N2   N   0.444444444444443   0.388888888888886   0.125557763040672   1.0000000
N2   N   0.944444868632563   0.888888464700766   0.125063381833838   1.0000000
N2   N   0.777777171351024   0.388888634563733   0.125088077508510   1.0000000
N2   N   0.277780600082750   0.555552733250586   0.624868707989995   1.0000000
N2   N   0.111111463212717   0.055556161982312   0.624911922491490   1.0000000
N2   N   0.611097741399339   0.555544916295380   0.624652343541506   1.0000000
N2   N   0.444444698769595   0.055556161982312   0.624911922491490   1.0000000
N2   N   0.944442697256574   0.555554269300366   0.624940890344824   1.0000000
N2   N   0.111111572043784   0.555554269300366   0.125059109655176   1.0000000
N2   N   0.777777777777779   0.055555555555557   0.624971494372027   1.0000000
N2   N   0.277780600082750   0.055561200165499   0.125131292010005   1.0000000
N2   N   0.444447174896034   0.555544916295380   0.125347656458494   1.0000000
N2   N   0.777772133167837   0.555552733250586   0.125131292010005   1.0000000
N2   N   0.611108256287098   0.055555407623609   0.125060976044296   1.0000000
N2   N   0.444447174896034   0.555544916295380   0.624652343541506   1.0000000
N2   N   0.944447151336511   0.055555407623609   0.125060976044296   1.0000000
N2   N   0.277779064032970   0.722221761289552   0.624940890344824   1.0000000
N2   N   0.111114956223152   0.222224144778240   0.624885111177323   1.0000000
N2   N   0.444447174896034   0.222235591933997   0.624652343541506   1.0000000
N2   N   0.611109188555096   0.722218377110184   0.624885111177323   1.0000000
N2   N   0.944442697256574   0.722221761289552   0.624940890344824   1.0000000
N2   N   0.777777925709726   0.222225077046237   0.624939023955704   1.0000000
N2   N   0.111111111111114   0.722222222222221   0.125028701402322   1.0000000
N2   N   0.444444698769595   0.722221870120619   0.125088077508510   1.0000000
N2   N   0.277788417037956   0.222235591933997   0.125347656458494   1.0000000
N2   N   0.777777171351024   0.722221870120619   0.125088077508510   1.0000000
N2   N   0.611109188555096   0.222224144778240   0.125114888822677   1.0000000
N2   N   0.944447151336511   0.222225077046237   0.125060976044296   1.0000000
N2   N   0.111111463212717   0.388888634563733   0.624911922491490   1.0000000
N2   N   0.277779064032970   0.888890636076754   0.624940890344824   1.0000000
N2   N   0.611108256287098   0.888886181996817   0.624939023955704   1.0000000
N2   N   0.444444444444443   0.388888888888886   0.624442236959328   1.0000000
N2   N   0.944444868632563   0.888888464700766   0.624936618166161   1.0000000
N2   N   0.111111572043784   0.888890636076754   0.125059109655176   1.0000000
N2   N   0.777777171351024   0.388888634563733   0.624911922491490   1.0000000
N2   N   0.444443596068210   0.888888464700766   0.125063381833838   1.0000000
N2   N   0.277788417037956   0.388886158437295   0.125347656458494   1.0000000
N2   N   0.277780600082750   0.555552733250586   0.125131292010005   1.0000000
N2   N   0.611097741399339   0.388886158437295   0.125347656458494   1.0000000
N2   N   0.777777925709726   0.888886181996817   0.125060976044296   1.0000000
N2   N   0.944444868632563   0.388889737265118   0.125063381833838   1.0000000
N2   N   0.111111572043784   0.555554269300366   0.624940890344824   1.0000000
N2   N   0.277780600082750   0.055561200165499   0.624868707989995   1.0000000
N2   N   0.777772133167837   0.555552733250586   0.624868707989995   1.0000000
N2   N   0.611108256287098   0.055555407623609   0.624939023955704   1.0000000
N2   N   0.944447151336511   0.055555407623609   0.624939023955704   1.0000000
N2   N   0.055750188025149   0.111200807789194   0.375000000000000   1.0000000
N2   N   0.555650178329936   0.611300356659865   0.375000000000000   1.0000000
N2   N   0.389185897090915   0.113093523697819   0.375000000000000   1.0000000
N2   N   0.888229356804934   0.610781345069138   0.375000000000000   1.0000000
N2   N   0.722188597266445   0.111144736066890   0.375000000000000   1.0000000
N2   N   0.055554094241507   0.777779239091828   0.875000000000000   1.0000000
N2   N   0.388889836117705   0.777777853069059   0.875000000000000   1.0000000
N2   N   0.222225878872744   0.277779606103040   0.875000000000000   1.0000000
N2   N   0.722219800523860   0.777777953693327   0.875000000000000   1.0000000
N2   N   0.555553727230296   0.277779606103040   0.875000000000000   1.0000000
N2   N   0.888889646978253   0.277779293956513   0.875000000000000   1.0000000
N2   N   0.222350740852924   0.777842037093130   0.375000000000000   1.0000000
N2   N   0.055750188025149   0.277882713569290   0.375000000000000   1.0000000
N2   N   0.391430041614324   0.282860083228654   0.375000000000000   1.0000000
N2   N   0.555450619764046   0.777583145308187   0.375000000000000   1.0000000
N2   N   0.888330574875648   0.777336060777014   0.375000000000000   1.0000000
N2   N   0.722132525544141   0.277882713569290   0.375000000000000   1.0000000
N2   N   0.055555480264276   0.944445316381981   0.875000000000000   1.0000000
N2   N   0.388889836117705   0.944445316381981   0.875000000000000   1.0000000
N2   N   0.222226289276922   0.444441865174270   0.875000000000000   1.0000000
N2   N   0.555554426285534   0.444443879809431   0.875000000000000   1.0000000
N2   N   0.722221347965668   0.944442695931336   0.875000000000000   1.0000000
N2   N   0.888888016951347   0.444443497215624   0.875000000000000   1.0000000
N2   N   0.055997272556322   0.444327847431963   0.375000000000000   1.0000000
N2   N   0.222551988264197   0.945103976528395   0.375000000000000   1.0000000
N2   N   0.555484250318367   0.944408791825851   0.375000000000000   1.0000000
N2   N   0.391430041614324   0.441903291719005   0.375000000000000   1.0000000
N2   N   0.888924541507477   0.944408791825851   0.375000000000000   1.0000000
N2   N   0.720239809635517   0.444147436242413   0.375000000000000   1.0000000
N2   N   0.222224761256885   0.611108572076451   0.875000000000000   1.0000000
N2   N   0.055555379640009   0.111113532809476   0.875000000000000   1.0000000
N2   N   0.555553727230296   0.611107454460592   0.875000000000000   1.0000000
N2   N   0.388891468159058   0.111117757435987   0.875000000000000   1.0000000
N2   N   0.888883810819559   0.611108572076451   0.875000000000000   1.0000000
N2   N   0.055491296240206   0.610982592480412   0.375000000000000   1.0000000
N2   N   0.722221347965668   0.111111985367667   0.875000000000000   1.0000000
N2   N   0.223907626606897   0.113093523697819   0.375000000000000   1.0000000
N2   N   0.389185897090915   0.609425706726439   0.375000000000000   1.0000000
N2   N   0.720239809635517   0.609425706726439   0.375000000000000   1.0000000
N2   N   0.555450619764046   0.111200807789194   0.375000000000000   1.0000000
N2   N   0.388891468159058   0.611107044056414   0.875000000000000   1.0000000
N2   N   0.888956138800445   0.111144736066890   0.375000000000000   1.0000000
N2   N   0.222225144850329   0.777779239091828   0.875000000000000   1.0000000
N2   N   0.055555379640009   0.277775180163869   0.875000000000000   1.0000000
N2   N   0.388889453523897   0.277778907047802   0.875000000000000   1.0000000
N2   N   0.555558153169466   0.777777953693327   0.875000000000000   1.0000000
N2   N   0.888888016951347   0.777777853069059   0.875000000000000   1.0000000
N2   N   0.722219800523860   0.277775180163869   0.875000000000000   1.0000000
N2   N   0.055491296240206   0.777842037093130   0.375000000000000   1.0000000
N2   N   0.389005485901366   0.777336060777014   0.375000000000000   1.0000000
N2   N   0.222032976673471   0.277683155003400   0.375000000000000   1.0000000
N2   N   0.722132525544141   0.777583145308187   0.375000000000000   1.0000000
N2   N   0.555650178329936   0.277683155003400   0.375000000000000   1.0000000
N2   N   0.888924541507477   0.277849083014969   0.375000000000000   1.0000000
N2   N   0.055555480264276   0.444443497215624   0.875000000000000   1.0000000
N2   N   0.222224761256885   0.944449522513770   0.875000000000000   1.0000000
N2   N   0.555554039376823   0.944443686355075   0.875000000000000   1.0000000
N2   N   0.388889453523897   0.444443879809431   0.875000000000000   1.0000000
N2   N   0.888889646978253   0.944443686355075   0.875000000000000   1.0000000
N2   N   0.055997272556322   0.945002758457681   0.375000000000000   1.0000000
N2   N   0.722215575897348   0.444441865174270   0.875000000000000   1.0000000
N2   N   0.389005485901366   0.945002758457681   0.375000000000000   1.0000000
N2   N   0.223907626606897   0.444147436242413   0.375000000000000   1.0000000
N2   N   0.222551988264197   0.610781345069138   0.375000000000000   1.0000000
N2   N   0.550473250104681   0.441903291719005   0.375000000000000   1.0000000
N2   N   0.722188597266445   0.944377194532883   0.375000000000000   1.0000000
N2   N   0.888330574875648   0.444327847431963   0.375000000000000   1.0000000
N2   N   0.055554094241507   0.611108188483007   0.875000000000000   1.0000000
N2   N   0.222226289276922   0.111117757435987   0.875000000000000   1.0000000
N2   N   0.722215575897348   0.611107044056414   0.875000000000000   1.0000000
N2   N   0.555558153169466   0.111113532809476   0.875000000000000   1.0000000
N2   N   0.888890637401992   0.111111985367667   0.875000000000000   1.0000000
B2   B   0.111688250417618   0.056177721454546   0.375000000000000   1.0000000
B2   B   0.609648910769508   0.555868584984347   0.375000000000000   1.0000000
B2   B   0.444489471036928   0.056177721454546   0.375000000000000   1.0000000
B2   B   0.944244963704427   0.555551200047547   0.375000000000000   1.0000000
B2   B   0.777777777777779   0.055555555555557   0.375000000000000   1.0000000
B2   B   0.111111111111114   0.722222222222221   0.875000000000000   1.0000000
B2   B   0.444450580502465   0.722243043872688   0.875000000000000   1.0000000
B2   B   0.277751534105630   0.222206480086952   0.875000000000000   1.0000000
B2   B   0.777792463370224   0.722243043872688   0.875000000000000   1.0000000
B2   B   0.611122446855221   0.222210886478115   0.875000000000000   1.0000000
B2   B   0.944426842177591   0.222217652409862   0.875000000000000   1.0000000
B2   B   0.277782133285788   0.722027096990216   0.375000000000000   1.0000000
B2   B   0.110321043899289   0.221827188616309   0.375000000000000   1.0000000
B2   B   0.446219674214840   0.223684422563828   0.375000000000000   1.0000000
B2   B   0.611506144717027   0.723012289434046   0.375000000000000   1.0000000
B2   B   0.944244963704427   0.722027096990216   0.375000000000000   1.0000000
B2   B   0.777927463715473   0.222257920574640   0.375000000000000   1.0000000
B2   B   0.111111628103505   0.888886373107951   0.875000000000000   1.0000000
B2   B   0.444455334464112   0.888894333898717   0.875000000000000   1.0000000
B2   B   0.277751534105630   0.388878387352007   0.875000000000000   1.0000000
B2   B   0.611126853246384   0.388878387352007   0.875000000000000   1.0000000
B2   B   0.777790810232271   0.888906491155737   0.875000000000000   1.0000000
B2   B   0.944438999434612   0.388877998869216   0.875000000000000   1.0000000
B2   B   0.111688250417618   0.388843862296400   0.375000000000000   1.0000000
B2   B   0.277782133285788   0.889088369628901   0.375000000000000   1.0000000
B2   B   0.611075412758695   0.889002876474154   0.375000000000000   1.0000000
B2   B   0.944452081631274   0.888881251702054   0.375000000000000   1.0000000
B2   B   0.777155611878789   0.388843862296400   0.375000000000000   1.0000000
B2   B   0.277766258291268   0.555567075042068   0.875000000000000   1.0000000
B2   B   0.111090289460647   0.055540869963112   0.875000000000000   1.0000000
B2   B   0.611126853246384   0.555581799227706   0.875000000000000   1.0000000
B2   B   0.444450580502465   0.055540869963112   0.875000000000000   1.0000000
B2   B   0.944446960225378   0.555558588328883   0.875000000000000   1.0000000
B2   B   0.111306236343120   0.555551200047547   0.375000000000000   1.0000000
B2   B   0.777777777777779   0.055555555555557   0.875000000000000   1.0000000
B2   B   0.278011564498731   0.056023128997470   0.375000000000000   1.0000000
B2   B   0.446219674214840   0.555868584984347   0.375000000000000   1.0000000
B2   B   0.777310204335866   0.555321768834604   0.375000000000000   1.0000000
B2   B   0.611075412758695   0.055405869617863   0.375000000000000   1.0000000
B2   B   0.444454945981322   0.555581799227706   0.875000000000000   1.0000000
B2   B   0.944330456859174   0.055405869617863   0.375000000000000   1.0000000
B2   B   0.277774745004452   0.722221705229830   0.875000000000000   1.0000000
B2   B   0.111088439622894   0.222210886478115   0.875000000000000   1.0000000
B2   B   0.444454945981322   0.222206480086952   0.875000000000000   1.0000000
B2   B   0.611122446855221   0.722244893710441   0.875000000000000   1.0000000
B2   B   0.944446960225378   0.722221705229830   0.875000000000000   1.0000000
B2   B   0.777790810232271   0.222217652409862   0.875000000000000   1.0000000
B2   B   0.111111111111114   0.722222222222221   0.375000000000000   1.0000000
B2   B   0.444489471036928   0.721645082915717   0.375000000000000   1.0000000
B2   B   0.277464748348988   0.223684422563828   0.375000000000000   1.0000000
B2   B   0.777155611878789   0.721645082915717   0.375000000000000   1.0000000
B2   B   0.611506144717027   0.221827188616309   0.375000000000000   1.0000000
B2   B   0.944330456859174   0.222257920574640   0.375000000000000   1.0000000
B2   B   0.111090289460647   0.388882752830864   0.875000000000000   1.0000000
B2   B   0.277774745004452   0.888886373107951   0.875000000000000   1.0000000
B2   B   0.611115680923474   0.888906491155737   0.875000000000000   1.0000000
B2   B   0.444444444444443   0.388888888888886   0.875000000000000   1.0000000
B2   B   0.944438999434612   0.888894333898717   0.875000000000000   1.0000000
B2   B   0.111306236343120   0.889088369628901   0.375000000000000   1.0000000
B2   B   0.777792463370224   0.388882752830864   0.875000000000000   1.0000000
B2   B   0.444429170070779   0.888881251702054   0.375000000000000   1.0000000
B2   B   0.277464748348988   0.387113659118489   0.375000000000000   1.0000000
B2   B   0.278011564498731   0.555321768834604   0.375000000000000   1.0000000
B2   B   0.609648910769508   0.387113659118489   0.375000000000000   1.0000000
B2   B   0.777927463715473   0.889002876474154   0.375000000000000   1.0000000
B2   B   0.944452081631274   0.388904163262549   0.375000000000000   1.0000000
B2   B   0.111111628103505   0.555558588328883   0.875000000000000   1.0000000
B2   B   0.277766258291268   0.055532516582536   0.875000000000000   1.0000000
B2   B   0.777800816750799   0.555567075042068   0.875000000000000   1.0000000
B2   B   0.611115680923474   0.055542523101065   0.875000000000000   1.0000000
B2   B   0.944426842177591   0.055542523101065   0.875000000000000   1.0000000
B2   B   0.055516486598617   0.111055295230333   0.124990323034761   1.0000000
B2   B   0.555600749838533   0.611201499677066   0.124978324920795   1.0000000
B2   B   0.388862501912345   0.110998766428733   0.125015250855086   1.0000000
B2   B   0.888951480077937   0.611142406705640   0.125023028149797   1.0000000
B2   B   0.722237628577074   0.111095704756262   0.124998833062541   1.0000000
B2   B   0.055570748335235   0.777762584998101   0.624983230059345   1.0000000
B2   B   0.388880441799947   0.777789767542391   0.624991577419086   1.0000000
B2   B   0.222131833656270   0.277732583494803   0.625021675079205   1.0000000
B2   B   0.722278038103003   0.777816846734719   0.625009676965239   1.0000000
B2   B   0.555600749838533   0.277732583494803   0.625021675079205   1.0000000
B2   B   0.888890363296859   0.277780726593725   0.624992782775658   1.0000000
B2   B   0.222191836662866   0.777762584998101   0.125016769940655   1.0000000
B2   B   0.055516486598617   0.277794524701620   0.124990323034761   1.0000000
B2   B   0.388869238746441   0.277738477492882   0.124869268525029   1.0000000
B2   B   0.555538808631715   0.777816846734719   0.124990323034761   1.0000000
B2   B   0.888909325742437   0.777789767542391   0.125008422580914   1.0000000
B2   B   0.722278038103003   0.277794524701620   0.124990323034761   1.0000000
B2   B   0.055543565790944   0.944424007590891   0.624991577419086   1.0000000
B2   B   0.388880441799947   0.944424007590891   0.624991577419086   1.0000000
B2   B   0.222136264516380   0.444470831420983   0.624984749144914   1.0000000
B2   B   0.555594855840453   0.444464094586887   0.625130731474971   1.0000000
B2   B   0.722237628577074   0.944475257154141   0.625001166937459   1.0000000
B2   B   0.888909325742437   0.444452891533382   0.624991577419086   1.0000000
B2   B   0.055543565790944   0.444452891533382   0.125008422580914   1.0000000
B2   B   0.222190926627695   0.944381853255391   0.125023028149797   1.0000000
B2   B   0.555552606739610   0.944442970036469   0.125007217224342   1.0000000
B2   B   0.388869238746441   0.444464094586887   0.124869268525029   1.0000000
B2   B   0.888890363296859   0.944442970036469   0.125007217224342   1.0000000
B2   B   0.722334566904603   0.444470831420983   0.125015250855086   1.0000000
B2   B   0.222190926627695   0.611142406705640   0.624976971850203   1.0000000
B2   B   0.055516486598617   0.111055295230333   0.625009676965239   1.0000000
B2   B   0.555600749838533   0.611201499677066   0.625021675079205   1.0000000
B2   B   0.388862501912345   0.110998766428733   0.624984749144914   1.0000000
B2   B   0.888951480077937   0.611142406705640   0.624976971850203   1.0000000
B2   B   0.055570748335235   0.611141496670469   0.125016769940655   1.0000000
B2   B   0.722237628577074   0.111095704756262   0.625001166937459   1.0000000
B2   B   0.222136264516380   0.110998766428733   0.125015250855086   1.0000000
B2   B   0.388862501912345   0.611197068816955   0.125015250855086   1.0000000
B2   B   0.722334566904603   0.611197068816955   0.125015250855086   1.0000000
B2   B   0.555538808631715   0.111055295230333   0.124990323034761   1.0000000
B2   B   0.388862501912345   0.611197068816955   0.624984749144914   1.0000000
B2   B   0.888858076179188   0.111095704756262   0.124998833062541   1.0000000
B2   B   0.222191836662866   0.777762584998101   0.624983230059345   1.0000000
B2   B   0.055516486598617   0.277794524701620   0.625009676965239   1.0000000
B2   B   0.388869238746441   0.277738477492882   0.625130731474971   1.0000000
B2   B   0.555538808631715   0.777816846734719   0.625009676965239   1.0000000
B2   B   0.888909325742437   0.777789767542391   0.624991577419086   1.0000000
B2   B   0.722278038103003   0.277794524701620   0.625009676965239   1.0000000
B2   B   0.055570748335235   0.777762584998101   0.125016769940655   1.0000000
B2   B   0.388880441799947   0.777789767542391   0.125008422580914   1.0000000
B2   B   0.222131833656270   0.277732583494803   0.124978324920795   1.0000000
B2   B   0.722278038103003   0.777816846734719   0.124990323034761   1.0000000
B2   B   0.555600749838533   0.277732583494803   0.124978324920795   1.0000000
B2   B   0.888890363296859   0.277780726593725   0.125007217224342   1.0000000
B2   B   0.055543565790944   0.444452891533382   0.624991577419086   1.0000000
B2   B   0.222190926627695   0.944381853255391   0.624976971850203   1.0000000
B2   B   0.555552606739610   0.944442970036469   0.624992782775658   1.0000000
B2   B   0.388869238746441   0.444464094586887   0.625130731474971   1.0000000
B2   B   0.888890363296859   0.944442970036469   0.624992782775658   1.0000000
B2   B   0.055543565790944   0.944424007590891   0.125008422580914   1.0000000
B2   B   0.722334566904603   0.444470831420983   0.624984749144914   1.0000000
B2   B   0.388880441799947   0.944424007590891   0.125008422580914   1.0000000
B2   B   0.222136264516380   0.444470831420983   0.125015250855086   1.0000000
B2   B   0.222190926627695   0.611142406705640   0.125023028149797   1.0000000
B2   B   0.555594855840453   0.444464094586887   0.124869268525029   1.0000000
B2   B   0.722237628577074   0.944475257154141   0.124998833062541   1.0000000
B2   B   0.888909325742437   0.444452891533382   0.125008422580914   1.0000000
B2   B   0.055570748335235   0.611141496670469   0.624983230059345   1.0000000
B2   B   0.222136264516380   0.110998766428733   0.624984749144914   1.0000000
B2   B   0.722334566904603   0.611197068816955   0.624984749144914   1.0000000
B2   B   0.555538808631715   0.111055295230333   0.625009676965239   1.0000000
B2   B   0.888858076179188   0.111095704756262   0.625001166937459   1.0000000


