data_1
_audit_creation_method   'vasp2cif'
_cell_length_a    14.93631414619966
_cell_length_b    14.936314146199727
_cell_length_c    13.341276283792837
_cell_angle_alpha    90.0
_cell_angle_beta    90.0
_cell_angle_gamma    119.99999999999984

_symmetry_space_group_name_H-M    'P 1'
loop_
_atom_site_label
_atom_site_type_symbol
_atom_site_fract_x
_atom_site_fract_y
_atom_site_fract_z
_atom_site_occupancy
As2   As   0.555555555555557   0.444444444444443   0.375000000000000   1.0000000
N2   N   0.111099915959548   0.055555811167517   0.125156223379261   1.0000000
N2   N   0.611159144761224   0.555651622855698   0.121762058430612   1.0000000
N2   N   0.444454119698359   0.055570488040362   0.125310515195444   1.0000000
N2   N   0.944429511959617   0.555545880301599   0.125310515195444   1.0000000
N2   N   0.777784530312475   0.055558931822882   0.124969824614490   1.0000000
N2   N   0.111106947092202   0.722220140212795   0.624903830216443   1.0000000
N2   N   0.444454119698359   0.722216964991327   0.624689484804592   1.0000000
N2   N   0.277751080067794   0.222214777483859   0.625349059796016   1.0000000
N2   N   0.777785222516133   0.722248919932248   0.625349059796016   1.0000000
N2   N   0.611130364082802   0.222214777483859   0.625349059796016   1.0000000
N2   N   0.944441068177144   0.222215469687588   0.625030175385487   1.0000000
N2   N   0.277779859787201   0.722220140212795   0.125096169783516   1.0000000
N2   N   0.111082222912215   0.222207778122762   0.124984066366737   1.0000000
N2   N   0.444456364694166   0.222246062721670   0.124388491700070   1.0000000
N2   N   0.611130364082802   0.722248919932248   0.124650940203986   1.0000000
N2   N   0.944429511959617   0.722216964991327   0.125310515195444   1.0000000
N2   N   0.777792221877222   0.222207778122762   0.124984066366737   1.0000000
N2   N   0.111106936639019   0.888893063360999   0.624893225091136   1.0000000
N2   N   0.444452793388592   0.888893063360999   0.624893225091136   1.0000000
N2   N   0.277751080067794   0.388869635917281   0.625349059796016   1.0000000
N2   N   0.611159144761224   0.388840855238815   0.628237941569309   1.0000000
N2   N   0.777792221877222   0.888917777087834   0.625015933633281   1.0000000
N2   N   0.944444188832494   0.388877438125356   0.624843776620763   1.0000000
N2   N   0.111099915959548   0.388877438125356   0.125156223379261   1.0000000
N2   N   0.277779859787201   0.888893052907731   0.125096169783516   1.0000000
N2   N   0.611122561874616   0.888900084040511   0.125156223379261   1.0000000
N2   N   0.444348377144355   0.388840855238815   0.121762058430612   1.0000000
N2   N   0.944444188832494   0.888900084040511   0.125156223379261   1.0000000
N2   N   0.777785222516133   0.388869635917281   0.124650940203986   1.0000000
N2   N   0.277783035008672   0.555545880301599   0.624689484804592   1.0000000
N2   N   0.111099915959548   0.055555811167517   0.624843776620763   1.0000000
N2   N   0.611159144761224   0.555651622855632   0.628237941569309   1.0000000
N2   N   0.444454119698359   0.055570488040362   0.624689484804592   1.0000000
N2   N   0.944429511959617   0.555545880301599   0.624689484804592   1.0000000
N2   N   0.111106936639019   0.555547206611397   0.125106774908844   1.0000000
N2   N   0.777784530312475   0.055558931822882   0.625030175385487   1.0000000
N2   N   0.277783035008672   0.055570488040362   0.125310515195444   1.0000000
N2   N   0.444456364694166   0.555543635305760   0.124388491700070   1.0000000
N2   N   0.777753937278331   0.555543635305760   0.124388491700070   1.0000000
N2   N   0.611122561874616   0.055555811167517   0.125156223379261   1.0000000
N2   N   0.444456364694166   0.555543635305760   0.625611508299876   1.0000000
N2   N   0.944441068177144   0.055558931822882   0.124969824614490   1.0000000
N2   N   0.277779859787201   0.722220140212795   0.624903830216443   1.0000000
N2   N   0.111082222912215   0.222207778122762   0.625015933633281   1.0000000
N2   N   0.444456364694166   0.222246062721670   0.625611508299876   1.0000000
N2   N   0.611130364082802   0.722248919932248   0.625349059796016   1.0000000
N2   N   0.944429511959617   0.722216964991327   0.624689484804592   1.0000000
N2   N   0.777792221877222   0.222207778122762   0.625015933633281   1.0000000
N2   N   0.111106947092202   0.722220140212795   0.125096169783516   1.0000000
N2   N   0.444454119698359   0.722216964991327   0.125310515195444   1.0000000
N2   N   0.277751080067794   0.222214777483859   0.124650940203986   1.0000000
N2   N   0.777785222516216   0.722248919932248   0.124650940203986   1.0000000
N2   N   0.611130364082802   0.222214777483859   0.124650940203986   1.0000000
N2   N   0.944441068177144   0.222215469687588   0.124969824614490   1.0000000
N2   N   0.111099915959548   0.388877438125356   0.624843776620763   1.0000000
N2   N   0.277779859787201   0.888893052907731   0.624903830216443   1.0000000
N2   N   0.611122561874616   0.888900084040511   0.624843776620763   1.0000000
N2   N   0.444348377144355   0.388840855238815   0.628237941569309   1.0000000
N2   N   0.944444188832494   0.888900084040511   0.624843776620763   1.0000000
N2   N   0.111106936639019   0.888893063360999   0.125106774908844   1.0000000
N2   N   0.777785222516133   0.388869635917281   0.625349059796016   1.0000000
N2   N   0.444452793388592   0.888893063360999   0.125106774908844   1.0000000
N2   N   0.277751080067794   0.388869635917281   0.124650940203986   1.0000000
N2   N   0.277783035008672   0.555545880301599   0.125310515195444   1.0000000
N2   N   0.611159144761224   0.388840855238815   0.121762058430612   1.0000000
N2   N   0.777792221877222   0.888917777087834   0.124984066366737   1.0000000
N2   N   0.944444188832494   0.388877438125356   0.125156223379261   1.0000000
N2   N   0.111106936639019   0.555547206611397   0.624893225091136   1.0000000
N2   N   0.277783035008672   0.055570488040362   0.624689484804592   1.0000000
N2   N   0.777753937278331   0.555543635305760   0.625611508299876   1.0000000
N2   N   0.611122561874616   0.055555811167517   0.624843776620763   1.0000000
N2   N   0.944441068177144   0.055558931822882   0.625030175385487   1.0000000
N2   N   0.054476421714413   0.110396905826131   0.375000000000000   1.0000000
N2   N   0.555670115564789   0.620452683244363   0.375000000000000   1.0000000
N2   N   0.387675958592972   0.108685250519276   0.375000000000000   1.0000000
N2   N   0.891314749480713   0.612324041406948   0.375000000000000   1.0000000
N2   N   0.722587150778398   0.110396905826131   0.375000000000000   1.0000000
N2   N   0.055554530146232   0.777778889695193   0.875000000000000   1.0000000
N2   N   0.388891026215665   0.777778889695193   0.875000000000000   1.0000000
N2   N   0.222225352033872   0.277779342683653   0.875000000000000   1.0000000
N2   N   0.722220657316417   0.777774647966030   0.875000000000000   1.0000000
N2   N   0.555549269568594   0.277773175169006   0.875000000000000   1.0000000
N2   N   0.888890279005190   0.277778636315605   0.875000000000000   1.0000000
N2   N   0.222222222222221   0.777777777777779   0.375000000000000   1.0000000
N2   N   0.054476421714413   0.277412849221592   0.375000000000000   1.0000000
N2   N   0.379547316755539   0.268550765653659   0.375000000000000   1.0000000
N2   N   0.555165281182346   0.781457790707417   0.375000000000000   1.0000000
N2   N   0.892959176191570   0.781457790707417   0.375000000000000   1.0000000
N2   N   0.723950654872761   0.276049345127274   0.375000000000000   1.0000000
N2   N   0.055554844607380   0.944445155392550   0.875000000000000   1.0000000
N2   N   0.388891026215665   0.944445469853809   0.875000000000000   1.0000000
N2   N   0.222223325391339   0.444446242736824   0.875000000000000   1.0000000
N2   N   0.555555555555557   0.444444444444443   0.875000000000000   1.0000000
N2   N   0.722221363684446   0.944444976022947   0.875000000000000   1.0000000
N2   N   0.888889584012085   0.444446242736824   0.875000000000000   1.0000000
N2   N   0.055744608935950   0.444822551205233   0.375000000000000   1.0000000
N2   N   0.221848098103334   0.943452821069217   0.375000000000000   1.0000000
N2   N   0.555177448794682   0.944255391064052   0.375000000000000   1.0000000
N2   N   0.379547316755539   0.444329884435220   0.375000000000000   1.0000000
N2   N   0.889603094173885   0.945523578285563   0.375000000000000   1.0000000
N2   N   0.731449234346197   0.444329884435220   0.375000000000000   1.0000000
N2   N   0.222221110304781   0.611108973784298   0.875000000000000   1.0000000
N2   N   0.055555023977016   0.111109720994790   0.875000000000000   1.0000000
N2   N   0.555549269568594   0.611109427732752   0.875000000000000   1.0000000
N2   N   0.388888178952680   0.111109691238766   0.875000000000000   1.0000000
N2   N   0.888890308761297   0.611111821047193   0.875000000000000   1.0000000
N2   N   0.056547178930817   0.611728610367444   0.375000000000000   1.0000000
N2   N   0.722221363684446   0.111109720994790   0.875000000000000   1.0000000
N2   N   0.218542209292581   0.107040823808384   0.375000000000000   1.0000000
N2   N   0.387675958592972   0.612324041406948   0.375000000000000   1.0000000
N2   N   0.731449234346197   0.620452683244363   0.375000000000000   1.0000000
N2   N   0.555165281182346   0.107040823808384   0.375000000000000   1.0000000
N2   N   0.388888178952680   0.611111821047193   0.875000000000000   1.0000000
N2   N   0.888888888888886   0.111111111111114   0.375000000000000   1.0000000
N2   N   0.222222222222221   0.777777777777779   0.875000000000000   1.0000000
N2   N   0.055555023977016   0.277778636315605   0.875000000000000   1.0000000
N2   N   0.388890572267182   0.277773175169006   0.875000000000000   1.0000000
N2   N   0.555553757263241   0.777776674608747   0.875000000000000   1.0000000
N2   N   0.888889584012085   0.777776674608747   0.875000000000000   1.0000000
N2   N   0.722220657316417   0.277779342683653   0.875000000000000   1.0000000
N2   N   0.056547178930817   0.778151901896737   0.375000000000000   1.0000000
N2   N   0.388271389632508   0.778151901896737   0.375000000000000   1.0000000
N2   N   0.218765356921198   0.276049345127274   0.375000000000000   1.0000000
N2   N   0.723950654872761   0.781234643078788   0.375000000000000   1.0000000
N2   N   0.555670115564789   0.268550765653659   0.375000000000000   1.0000000
N2   N   0.889603094173885   0.277412849221592   0.375000000000000   1.0000000
N2   N   0.055554844607380   0.444443022548112   0.875000000000000   1.0000000
N2   N   0.222221110304781   0.944445469853809   0.875000000000000   1.0000000
N2   N   0.555556977451886   0.944445155392550   0.875000000000000   1.0000000
N2   N   0.388890572267182   0.444450730431492   0.875000000000000   1.0000000
N2   N   0.888890279005190   0.944444976022947   0.875000000000000   1.0000000
N2   N   0.055744608935950   0.944255391064052   0.375000000000000   1.0000000
N2   N   0.722226824830958   0.444450730431492   0.875000000000000   1.0000000
N2   N   0.388271389632508   0.943452821069217   0.375000000000000   1.0000000
N2   N   0.218542209292581   0.444834718817501   0.375000000000000   1.0000000
N2   N   0.221848098103334   0.611728610367444   0.375000000000000   1.0000000
N2   N   0.722587150778398   0.945523578285563   0.375000000000000   1.0000000
N2   N   0.892959176191570   0.444834718817501   0.375000000000000   1.0000000
N2   N   0.055554530146232   0.611108973784298   0.875000000000000   1.0000000
N2   N   0.222223325391339   0.111110415987836   0.875000000000000   1.0000000
N2   N   0.722226824830958   0.611109427732752   0.875000000000000   1.0000000
N2   N   0.555553757263241   0.111110415987836   0.875000000000000   1.0000000
N2   N   0.888888888888886   0.111111111111114   0.875000000000000   1.0000000
B2   B   0.108996368742441   0.053920240956621   0.375000000000000   1.0000000
B2   B   0.623665226413539   0.580663786160409   0.375000000000000   1.0000000
B2   B   0.443987806850093   0.053783553210566   0.375000000000000   1.0000000
B2   B   0.946216446789373   0.556012193149875   0.375000000000000   1.0000000
B2   B   0.778271183454010   0.055802258393738   0.375000000000000   1.0000000
B2   B   0.111110339516758   0.722221836425062   0.875000000000000   1.0000000
B2   B   0.444442197698797   0.722217330532329   0.875000000000000   1.0000000
B2   B   0.277794407358076   0.222230627699789   0.875000000000000   1.0000000
B2   B   0.777769372300234   0.722205592641847   0.875000000000000   1.0000000
B2   B   0.611102887008384   0.222230627699789   0.875000000000000   1.0000000
B2   B   0.944446991564348   0.222227316462030   0.875000000000000   1.0000000
B2   B   0.277500194412239   0.722499805587726   0.375000000000000   1.0000000
B2   B   0.108808212079289   0.221070772706292   0.375000000000000   1.0000000
B2   B   0.442843213657106   0.219019760647511   0.375000000000000   1.0000000
B2   B   0.612205862710653   0.729373205909897   0.375000000000000   1.0000000
B2   B   0.946216446789373   0.723537586972905   0.375000000000000   1.0000000
B2   B   0.778929227293744   0.221070772706292   0.375000000000000   1.0000000
B2   B   0.111111838605590   0.888888161394531   0.875000000000000   1.0000000
B2   B   0.444442989455484   0.888888161394531   0.875000000000000   1.0000000
B2   B   0.277794407358076   0.388897112991662   0.875000000000000   1.0000000
B2   B   0.611098859985869   0.388901140014094   0.875000000000000   1.0000000
B2   B   0.777770463269864   0.888874259873060   0.875000000000000   1.0000000
B2   B   0.944442848708583   0.388894852899582   0.875000000000000   1.0000000
B2   B   0.108996368742441   0.388409461119099   0.375000000000000   1.0000000
B2   B   0.277500194412239   0.888333722157806   0.375000000000000   1.0000000
B2   B   0.611590538880860   0.891003631257507   0.375000000000000   1.0000000
B2   B   0.419336213839570   0.376334773586460   0.375000000000000   1.0000000
B2   B   0.946079759043324   0.891003631257507   0.375000000000000   1.0000000
B2   B   0.783834009866001   0.387794137289430   0.375000000000000   1.0000000
B2   B   0.277782669467686   0.555557802301288   0.875000000000000   1.0000000
B2   B   0.111118670857764   0.055557151291473   0.875000000000000   1.0000000
B2   B   0.611098859985869   0.555531053305141   0.875000000000000   1.0000000
B2   B   0.444442197698797   0.055558200499801   0.875000000000000   1.0000000
B2   B   0.944441799500084   0.555557802301288   0.875000000000000   1.0000000
B2   B   0.111243060890136   0.555819455113546   0.375000000000000   1.0000000
B2   B   0.777772683537935   0.055553008435649   0.875000000000000   1.0000000
B2   B   0.276462413027170   0.053783553210566   0.375000000000000   1.0000000
B2   B   0.442843213657106   0.557156786342910   0.375000000000000   1.0000000
B2   B   0.780980239352453   0.557156786342910   0.375000000000000   1.0000000
B2   B   0.611590538880860   0.053920240956621   0.375000000000000   1.0000000
B2   B   0.444448944023990   0.555551055976045   0.875000000000000   1.0000000
B2   B   0.944197741606205   0.055802258393738   0.375000000000000   1.0000000
B2   B   0.277778163574960   0.722221836425062   0.875000000000000   1.0000000
B2   B   0.111125740126848   0.222229536730077   0.875000000000000   1.0000000
B2   B   0.444448944023990   0.222231221381261   0.875000000000000   1.0000000
B2   B   0.611102887008384   0.722205592641847   0.875000000000000   1.0000000
B2   B   0.944441799500084   0.722217330532329   0.875000000000000   1.0000000
B2   B   0.777770463269864   0.222229536730077   0.875000000000000   1.0000000
B2   B   0.111666277842249   0.722499805587726   0.375000000000000   1.0000000
B2   B   0.443987806850093   0.723537586972905   0.375000000000000   1.0000000
B2   B   0.270626794090166   0.216165990134058   0.375000000000000   1.0000000
B2   B   0.783834009866001   0.729373205909897   0.375000000000000   1.0000000
B2   B   0.612205862710653   0.216165990134058   0.375000000000000   1.0000000
B2   B   0.944197741606205   0.221728816545899   0.375000000000000   1.0000000
B2   B   0.111118670857764   0.388894852899582   0.875000000000000   1.0000000
B2   B   0.277778163574960   0.888889660483249   0.875000000000000   1.0000000
B2   B   0.611105147100362   0.888881329142230   0.875000000000000   1.0000000
B2   B   0.444468946694889   0.388901140014094   0.875000000000000   1.0000000
B2   B   0.944442848708583   0.888881329142230   0.875000000000000   1.0000000
B2   B   0.111243060890136   0.888756939109888   0.375000000000000   1.0000000
B2   B   0.777769372300234   0.388897112991662   0.875000000000000   1.0000000
B2   B   0.444180544886484   0.888756939109888   0.375000000000000   1.0000000
B2   B   0.270626794090166   0.387794137289430   0.375000000000000   1.0000000
B2   B   0.276462413027170   0.556012193149875   0.375000000000000   1.0000000
B2   B   0.623665226413539   0.376334773586460   0.375000000000000   1.0000000
B2   B   0.778929227293744   0.891191787920673   0.375000000000000   1.0000000
B2   B   0.946079759043324   0.388409461119099   0.375000000000000   1.0000000
B2   B   0.111111838605590   0.555557010544508   0.875000000000000   1.0000000
B2   B   0.277782669467686   0.055558200499801   0.875000000000000   1.0000000
B2   B   0.777768778618685   0.555551055976045   0.875000000000000   1.0000000
B2   B   0.611105147100362   0.055557151291473   0.875000000000000   1.0000000
B2   B   0.944446991564348   0.055553008435649   0.875000000000000   1.0000000
B2   B   0.055542654071317   0.111110861121850   0.125009523954592   1.0000000
B2   B   0.555612766018391   0.611074283895431   0.123542301129534   1.0000000
B2   B   0.388923042385314   0.111179418103960   0.125088676173673   1.0000000
B2   B   0.888820581896029   0.611076957614691   0.125088676173673   1.0000000
B2   B   0.722234873717168   0.111110861121850   0.125009523954592   1.0000000
B2   B   0.055535522755814   0.777772021661528   0.624866489973212   1.0000000
B2   B   0.388903165572286   0.777772021661528   0.624866489973212   1.0000000
B2   B   0.222208109451355   0.277770721392324   0.625287403840696   1.0000000
B2   B   0.722229278607617   0.777791890548688   0.625287403840696   1.0000000
B2   B   0.555612766018391   0.277871815456337   0.626457698870521   1.0000000
B2   B   0.888889138878101   0.277765126282790   0.624990476045404   1.0000000
B2   B   0.222222222222221   0.777777777777779   0.125007721353726   1.0000000
B2   B   0.055542654071317   0.277765126282790   0.125009523954592   1.0000000
B2   B   0.388925716104549   0.277871815456337   0.123542301129534   1.0000000
B2   B   0.555576365730852   0.777775395090241   0.125058377397830   1.0000000
B2   B   0.888865696026080   0.777775395090241   0.125058377397830   1.0000000
B2   B   0.722229278607617   0.277770721392324   0.124712596159147   1.0000000
B2   B   0.055550149919828   0.944449850080221   0.624883798294282   1.0000000
B2   B   0.388903165572286   0.944464477244114   0.624866489973212   1.0000000
B2   B   0.222224604909702   0.444423634269104   0.624941622602015   1.0000000
B2   B   0.555555555555557   0.444444444444443   0.627317255326637   1.0000000
B2   B   0.722234873717168   0.944457345928674   0.624990476045404   1.0000000
B2   B   0.888865696026080   0.444423634269104   0.624941622602015   1.0000000
B2   B   0.055550149919828   0.444433633172964   0.125116201705631   1.0000000
B2   B   0.222227978338532   0.944464477244114   0.125133510026788   1.0000000
B2   B   0.555566366826975   0.944449850080221   0.125116201705631   1.0000000
B2   B   0.388925716104549   0.444387233981596   0.123542301129534   1.0000000
B2   B   0.888889138878101   0.944457345928674   0.125009523954592   1.0000000
B2   B   0.722128184543680   0.444387233981596   0.123542301129534   1.0000000
B2   B   0.222227978338532   0.611096834427586   0.624866489973212   1.0000000
B2   B   0.055542654071317   0.111110861121850   0.624990476045404   1.0000000
B2   B   0.555612766018391   0.611074283895431   0.626457698870521   1.0000000
B2   B   0.388923042385314   0.111179418103960   0.624911323826360   1.0000000
B2   B   0.888820581896029   0.611076957614691   0.624911323826360   1.0000000
B2   B   0.055535522755814   0.611096834427586   0.125133510026788   1.0000000
B2   B   0.722234873717168   0.111110861121850   0.624990476045404   1.0000000
B2   B   0.222224604909702   0.111134303973914   0.125058377397830   1.0000000
B2   B   0.388923042385314   0.611076957614691   0.125088676173673   1.0000000
B2   B   0.722128184543680   0.611074283895431   0.123542301129534   1.0000000
B2   B   0.555576365730852   0.111134303973914   0.125058377397830   1.0000000
B2   B   0.388923042385314   0.611076957614691   0.624911323826360   1.0000000
B2   B   0.888888888888886   0.111111111111114   0.124950101773552   1.0000000
B2   B   0.222222222222221   0.777777777777779   0.624992278646275   1.0000000
B2   B   0.055542654071317   0.277765126282790   0.624990476045404   1.0000000
B2   B   0.388925716104549   0.277871815456337   0.626457698870521   1.0000000
B2   B   0.555576365730852   0.777775395090241   0.624941622602015   1.0000000
B2   B   0.888865696026080   0.777775395090241   0.624941622602015   1.0000000
B2   B   0.722229278607617   0.277770721392324   0.625287403840696   1.0000000
B2   B   0.055535522755814   0.777772021661528   0.125133510026788   1.0000000
B2   B   0.388903165572286   0.777772021661528   0.125133510026788   1.0000000
B2   B   0.222208109451355   0.277770721392324   0.124712596159147   1.0000000
B2   B   0.722229278607617   0.777791890548688   0.124712596159147   1.0000000
B2   B   0.555612766018391   0.277871815456337   0.123542301129534   1.0000000
B2   B   0.888889138878101   0.277765126282790   0.125009523954592   1.0000000
B2   B   0.055550149919828   0.444433633172964   0.624883798294282   1.0000000
B2   B   0.222227978338532   0.944464477244114   0.624866489973212   1.0000000
B2   B   0.555566366826975   0.944449850080221   0.624883798294282   1.0000000
B2   B   0.388925716104549   0.444387233981596   0.626457698870521   1.0000000
B2   B   0.888889138878101   0.944457345928674   0.624990476045404   1.0000000
B2   B   0.055550149919828   0.944449850080221   0.125116201705631   1.0000000
B2   B   0.722128184543680   0.444387233981596   0.626457698870521   1.0000000
B2   B   0.388903165572286   0.944464477244114   0.125133510026788   1.0000000
B2   B   0.222224604909702   0.444423634269104   0.125058377397830   1.0000000
B2   B   0.222227978338532   0.611096834427586   0.125133510026788   1.0000000
B2   B   0.555555555555557   0.444444444444443   0.122682744673303   1.0000000
B2   B   0.722234873717168   0.944457345928674   0.125009523954592   1.0000000
B2   B   0.888865696026080   0.444423634269104   0.125058377397830   1.0000000
B2   B   0.055535522755814   0.611096834427586   0.624866489973212   1.0000000
B2   B   0.222224604909702   0.111134303973914   0.624941622602015   1.0000000
B2   B   0.722128184543680   0.611074283895431   0.626457698870521   1.0000000
B2   B   0.555576365730852   0.111134303973914   0.624941622602015   1.0000000
B2   B   0.888888888888886   0.111111111111114   0.625049898226474   1.0000000


