data_1
_audit_creation_method   'vasp2cif'
_cell_length_a    14.93631414619966
_cell_length_b    14.936314146199727
_cell_length_c    13.341276283792837
_cell_angle_alpha    90.0
_cell_angle_beta    90.0
_cell_angle_gamma    119.99999999999984

_symmetry_space_group_name_H-M    'P 1'
loop_
_atom_site_label
_atom_site_type_symbol
_atom_site_fract_x
_atom_site_fract_y
_atom_site_fract_z
_atom_site_occupancy
Se2   Se   0.510831546910161   0.422082440121745   0.375000000000000   1.0000000
N2   N   0.111092374601412   0.055531092546079   0.125000680225399   1.0000000
N2   N   0.611040918363085   0.555535698708790   0.124272682925565   1.0000000
N2   N   0.444448461179323   0.055542810082073   0.125036735343678   1.0000000
N2   N   0.944402183755266   0.555541456551447   0.125077428439325   1.0000000
N2   N   0.777793627909846   0.055563480621594   0.124985099281495   1.0000000
N2   N   0.111090260092415   0.722211796712879   0.624984741718722   1.0000000
N2   N   0.444448461179323   0.722238984430585   0.624963264656322   1.0000000
N2   N   0.277736788385591   0.222186033364743   0.625505287997625   1.0000000
N2   N   0.777731924779174   0.722194834146076   0.624983716565156   1.0000000
N2   N   0.611098034495563   0.222186439113330   0.625146344839884   1.0000000
N2   N   0.944448770216056   0.222230658830512   0.624991700022754   1.0000000
N2   N   0.277775656653749   0.722227232715625   0.125009282319041   1.0000000
N2   N   0.111111982631643   0.222222657982490   0.124992563414618   1.0000000
N2   N   0.444432560185657   0.222201936130291   0.124495046036230   1.0000000
N2   N   0.611098034495563   0.722244928715554   0.124853655160109   1.0000000
N2   N   0.944402183755266   0.722194060537161   0.125077428439325   1.0000000
N2   N   0.777776391230505   0.222219010043917   0.125021508345915   1.0000000
N2   N   0.111092386857130   0.888867513075599   0.624986837982780   1.0000000
N2   N   0.444454935453816   0.888894134393579   0.624986352366756   1.0000000
N2   N   0.277736788385591   0.388884088354177   0.625505287997625   1.0000000
N2   N   0.611040918363085   0.388838552987637   0.625727317074435   1.0000000
N2   N   0.777776391230505   0.888890714519922   0.624978491654078   1.0000000
N2   N   0.944423626120530   0.388890733026505   0.624965559281754   1.0000000
N2   N   0.111092374601412   0.388894615388661   0.125000680225399   1.0000000
N2   N   0.277775656653749   0.888881757271452   0.125009282319041   1.0000000
N2   N   0.611125304752859   0.888909440417020   0.125005195388078   1.0000000
N2   N   0.444334966102585   0.388834149717953   0.122619610340239   1.0000000
N2   N   0.944423626120530   0.888866226427354   0.125034440718254   1.0000000
N2   N   0.777731924779174   0.388870423966427   0.125016283434837   1.0000000
N2   N   0.277771557140174   0.555567765293137   0.625009291586385   1.0000000
N2   N   0.111092374601412   0.055531092546079   0.624999319774601   1.0000000
N2   N   0.611040918363085   0.555535698708790   0.625727317074435   1.0000000
N2   N   0.444448461179323   0.055542810082073   0.624963264656322   1.0000000
N2   N   0.944402183755266   0.555541456551447   0.624922571560676   1.0000000
N2   N   0.111092386857130   0.555558207114860   0.125013162017227   1.0000000
N2   N   0.777793627909846   0.055563480621594   0.625014900718504   1.0000000
N2   N   0.277771557140174   0.055537125180380   0.124990708413615   1.0000000
N2   N   0.444432560185657   0.555563957388702   0.124495046036230   1.0000000
N2   N   0.777699623158749   0.555516478246042   0.124968355453529   1.0000000
N2   N   0.611125304752859   0.055549197669167   0.125005195388078   1.0000000
N2   N   0.444432560185657   0.555563957388702   0.625504953963763   1.0000000
N2   N   0.944448770216056   0.055551444718872   0.125008299977239   1.0000000
N2   N   0.277775656653749   0.722227232715625   0.624990717680959   1.0000000
N2   N   0.111111982631643   0.222222657982490   0.625007436585375   1.0000000
N2   N   0.444432560185657   0.222201936130291   0.625504953963763   1.0000000
N2   N   0.611098034495563   0.722244928715554   0.625146344839884   1.0000000
N2   N   0.944402183755266   0.722194060537161   0.624922571560676   1.0000000
N2   N   0.777776391230505   0.222219010043917   0.624978491654078   1.0000000
N2   N   0.111090260092415   0.722211796712879   0.125015258281272   1.0000000
N2   N   0.444448461179323   0.722238984430585   0.125036735343678   1.0000000
N2   N   0.277736788385591   0.222186033364743   0.124494712002368   1.0000000
N2   N   0.777731924779174   0.722194834146076   0.125016283434837   1.0000000
N2   N   0.611098034495563   0.222186439113330   0.124853655160109   1.0000000
N2   N   0.944448770216056   0.222230658830512   0.125008299977239   1.0000000
N2   N   0.111092374601412   0.388894615388661   0.624999319774601   1.0000000
N2   N   0.277775656653749   0.888881757271452   0.624990717680959   1.0000000
N2   N   0.611125304752859   0.888909440417020   0.624994804611922   1.0000000
N2   N   0.444334966102585   0.388834149717953   0.627380389659761   1.0000000
N2   N   0.944423626120530   0.888866226427354   0.624965559281754   1.0000000
N2   N   0.111092386857130   0.888867513075599   0.125013162017227   1.0000000
N2   N   0.777731924779174   0.388870423966427   0.624983716565156   1.0000000
N2   N   0.444454935453816   0.888894134393579   0.125013647633244   1.0000000
N2   N   0.277736788385591   0.388884088354177   0.124494712002368   1.0000000
N2   N   0.277771557140174   0.555567765293137   0.124990708413615   1.0000000
N2   N   0.611040918363085   0.388838552987637   0.124272682925565   1.0000000
N2   N   0.777776391230505   0.888890714519922   0.125021508345915   1.0000000
N2   N   0.944423626120530   0.388890733026505   0.125034440718254   1.0000000
N2   N   0.111092386857130   0.555558207114860   0.624986837982780   1.0000000
N2   N   0.277771557140174   0.055537125180380   0.625009291586385   1.0000000
N2   N   0.777699623158749   0.555516478246042   0.625031644546471   1.0000000
N2   N   0.611125304752859   0.055549197669167   0.624994804611922   1.0000000
N2   N   0.944448770216056   0.055551444718872   0.624991700022754   1.0000000
N2   N   0.058611932714556   0.112827611294345   0.375000000000000   1.0000000
N2   N   0.556552824469317   0.621171497216463   0.375000000000000   1.0000000
N2   N   0.388271554713534   0.105089288327749   0.375000000000000   1.0000000
N2   N   0.885871251479560   0.609602292406448   0.375000000000000   1.0000000
N2   N   0.724449002349270   0.111219317214195   0.375000000000000   1.0000000
N2   N   0.055546759583261   0.777773238331153   0.875000000000000   1.0000000
N2   N   0.388882964445309   0.777775692928512   0.875000000000000   1.0000000
N2   N   0.222214691965628   0.277774012649485   0.875000000000000   1.0000000
N2   N   0.722218009561115   0.777774121553920   0.875000000000000   1.0000000
N2   N   0.555550621474048   0.277776371204628   0.875000000000000   1.0000000
N2   N   0.888884752410070   0.277777632112838   0.875000000000000   1.0000000
N2   N   0.220550084632101   0.776941708982715   0.375000000000000   1.0000000
N2   N   0.058611932714556   0.279117654753546   0.375000000000000   1.0000000
N2   N   0.390083470133652   0.268656305379328   0.375000000000000   1.0000000
N2   N   0.556342545344933   0.782519974407316   0.375000000000000   1.0000000
N2   N   0.888861939388189   0.778448689840708   0.375000000000000   1.0000000
N2   N   0.724065599167769   0.276094929673618   0.375000000000000   1.0000000
N2   N   0.055547706138413   0.944438744921503   0.875000000000000   1.0000000
N2   N   0.388882964445309   0.944440604850140   0.875000000000000   1.0000000
N2   N   0.222213385317675   0.444444130405080   0.875000000000000   1.0000000
N2   N   0.555557115912416   0.444445224622869   0.875000000000000   1.0000000
N2   N   0.722215926182693   0.944440636455632   0.875000000000000   1.0000000
N2   N   0.888885810739780   0.444443177010252   0.875000000000000   1.0000000
N2   N   0.055984530077723   0.444915327058317   0.375000000000000   1.0000000
N2   N   0.220968183986361   0.942406984518893   0.375000000000000   1.0000000
N2   N   0.556303983364726   0.944818658349031   0.375000000000000   1.0000000
N2   N   0.390083470133652   0.454760498087666   0.375000000000000   1.0000000
N2   N   0.891219896447756   0.946443384207662   0.375000000000000   1.0000000
N2   N   0.720999154631929   0.441652031640730   0.375000000000000   1.0000000
N2   N   0.222212795053116   0.611108087939081   0.875000000000000   1.0000000
N2   N   0.055548686542024   0.111105808892235   0.875000000000000   1.0000000
N2   N   0.555550621474048   0.611107583602764   0.875000000000000   1.0000000
N2   N   0.388882635784725   0.111105345840843   0.875000000000000   1.0000000
N2   N   0.888885004408085   0.611109168870713   0.875000000000000   1.0000000
N2   N   0.053694284728095   0.610508458188110   0.375000000000000   1.0000000
N2   N   0.722215926182693   0.111108623060384   0.875000000000000   1.0000000
N2   N   0.223018293030504   0.109985182758793   0.375000000000000   1.0000000
N2   N   0.388271554713534   0.616515599719127   0.375000000000000   1.0000000
N2   N   0.720999154631929   0.612680456324542   0.375000000000000   1.0000000
N2   N   0.556342545344933   0.107155904270953   0.375000000000000   1.0000000
N2   N   0.388882635784725   0.611110623277218   0.875000000000000   1.0000000
N2   N   0.891826833274752   0.112580083304051   0.375000000000000   1.0000000
N2   N   0.222213376805025   0.777773355069180   0.875000000000000   1.0000000
N2   N   0.055548686542024   0.277776210983124   0.875000000000000   1.0000000
N2   N   0.388882013825787   0.277768790571852   0.875000000000000   1.0000000
N2   N   0.555548800989444   0.777774774002316   0.875000000000000   1.0000000
N2   N   0.888885810739780   0.777775967062864   0.875000000000000   1.0000000
N2   N   0.722218009561115   0.277777221340516   0.875000000000000   1.0000000
N2   N   0.053694284728095   0.776519159873313   0.375000000000000   1.0000000
N2   N   0.388092487682031   0.779183159016104   0.375000000000000   1.0000000
N2   N   0.226941758852744   0.280137546093047   0.375000000000000   1.0000000
N2   N   0.724065599167769   0.781304002827472   0.375000000000000   1.0000000
N2   N   0.556552824469317   0.268714660586190   0.375000000000000   1.0000000
N2   N   0.891219896447756   0.278109845573437   0.375000000000000   1.0000000
N2   N   0.055547706138413   0.444442294550239   0.875000000000000   1.0000000
N2   N   0.222212795053116   0.944438040447370   0.875000000000000   1.0000000
N2   N   0.555547826296313   0.944440579814807   0.875000000000000   1.0000000
N2   N   0.388882013825787   0.444446556587271   0.875000000000000   1.0000000
N2   N   0.888884752410070   0.944440453630561   0.875000000000000   1.0000000
N2   N   0.055984530077723   0.944402536352741   0.375000000000000   1.0000000
N2   N   0.722220931149539   0.444444650077746   0.875000000000000   1.0000000
N2   N   0.388092487682031   0.942242661999262   0.375000000000000   1.0000000
N2   N   0.223018293030504   0.446366443605040   0.375000000000000   1.0000000
N2   N   0.220968183986361   0.611894532800804   0.375000000000000   1.0000000
N2   N   0.724449002349270   0.946563018468411   0.375000000000000   1.0000000
N2   N   0.888861939388189   0.443746582880817   0.375000000000000   1.0000000
N2   N   0.055546759583261   0.611106854585443   0.875000000000000   1.0000000
N2   N   0.222213385317675   0.111102588245924   0.875000000000000   1.0000000
N2   N   0.722220931149539   0.611109614405122   0.875000000000000   1.0000000
N2   N   0.555548800989444   0.111107360320457   0.875000000000000   1.0000000
N2   N   0.888884529823632   0.111108931578487   0.875000000000000   1.0000000
B2   B   0.112644586314750   0.055740545712754   0.375000000000000   1.0000000
B2   B   0.611719541635648   0.568525217650411   0.375000000000000   1.0000000
B2   B   0.444890969626515   0.051950347004202   0.375000000000000   1.0000000
B2   B   0.942718633406704   0.554749282797882   0.375000000000000   1.0000000
B2   B   0.780786001808564   0.057059667570950   0.375000000000000   1.0000000
B2   B   0.111109508798941   0.722221421066135   0.875000000000000   1.0000000
B2   B   0.444428347361347   0.722207312160603   0.875000000000000   1.0000000
B2   B   0.277769500560720   0.222223217277854   0.875000000000000   1.0000000
B2   B   0.777777207528253   0.722229147141523   0.875000000000000   1.0000000
B2   B   0.611094992142680   0.222214689479613   0.875000000000000   1.0000000
B2   B   0.944457649083817   0.222225047336354   0.875000000000000   1.0000000
B2   B   0.276819696993812   0.722601868392101   0.375000000000000   1.0000000
B2   B   0.115355738019372   0.224344535676350   0.375000000000000   1.0000000
B2   B   0.443838681735743   0.214469804338409   0.375000000000000   1.0000000
B2   B   0.613209034381225   0.729932861290653   0.375000000000000   1.0000000
B2   B   0.942718633406690   0.721302683942158   0.375000000000000   1.0000000
B2   B   0.780461672352156   0.221881878080004   0.375000000000000   1.0000000
B2   B   0.111111094568491   0.888898623242482   0.875000000000000   1.0000000
B2   B   0.444433016554742   0.888883174944036   0.875000000000000   1.0000000
B2   B   0.277769500560720   0.388879616616195   0.875000000000000   1.0000000
B2   B   0.611090213426832   0.388876131120147   0.875000000000000   1.0000000
B2   B   0.777780014996122   0.888895381670357   0.875000000000000   1.0000000
B2   B   0.944452998349999   0.388883413732722   0.875000000000000   1.0000000
B2   B   0.112644586314750   0.390237373935325   0.375000000000000   1.0000000
B2   B   0.276819696993812   0.887551161935047   0.375000000000000   1.0000000
B2   B   0.613179018457890   0.891980863335558   0.375000000000000   1.0000000
B2   B   0.945372177090773   0.889757604633918   0.375000000000000   1.0000000
B2   B   0.778362449045749   0.387094169936813   0.375000000000000   1.0000000
B2   B   0.277767608188178   0.555540692285924   0.875000000000000   1.0000000
B2   B   0.111117479103055   0.055566885846539   0.875000000000000   1.0000000
B2   B   0.611090213426832   0.555547415640007   0.875000000000000   1.0000000
B2   B   0.444428347361347   0.055554368534071   0.875000000000000   1.0000000
B2   B   0.944449063532965   0.555552321017246   0.875000000000000   1.0000000
B2   B   0.110109426312988   0.555746597533163   0.375000000000000   1.0000000
B2   B   0.777781289113366   0.055557311223351   0.875000000000000   1.0000000
B2   B   0.277213788648128   0.053148957118338   0.375000000000000   1.0000000
B2   B   0.443838681735743   0.562702210730662   0.375000000000000   1.0000000
B2   B   0.774558315446714   0.553945824390025   0.375000000000000   1.0000000
B2   B   0.613179018457890   0.054531488455668   0.375000000000000   1.0000000
B2   B   0.444414185761711   0.555529705580359   0.875000000000000   1.0000000
B2   B   0.947651121330510   0.057548428754762   0.375000000000000   1.0000000
B2   B   0.277769149337456   0.722212244505713   0.875000000000000   1.0000000
B2   B   0.111122996714401   0.222228165023865   0.875000000000000   1.0000000
B2   B   0.444414185761711   0.222217813514687   0.875000000000000   1.0000000
B2   B   0.611094992142680   0.722213635996395   0.875000000000000   1.0000000
B2   B   0.944449063532965   0.722230075849062   0.875000000000000   1.0000000
B2   B   0.777780014996122   0.222217966659093   0.875000000000000   1.0000000
B2   B   0.109472760074554   0.721403046703944   0.375000000000000   1.0000000
B2   B   0.444890969626515   0.726273955955650   0.375000000000000   1.0000000
B2   B   0.281369567196655   0.222296751550062   0.375000000000000   1.0000000
B2   B   0.778362449045749   0.724601612442264   0.375000000000000   1.0000000
B2   B   0.613209034381225   0.216609506423900   0.375000000000000   1.0000000
B2   B   0.947651121330510   0.223436025909084   0.375000000000000   1.0000000
B2   B   0.111117479103055   0.388883926589845   0.875000000000000   1.0000000
B2   B   0.277769149337456   0.888890238165064   0.875000000000000   1.0000000
B2   B   0.611102641568946   0.888884481527581   0.875000000000000   1.0000000
B2   B   0.444402268995426   0.388867801164377   0.875000000000000   1.0000000
B2   B   0.944452998349999   0.888902917950606   0.875000000000000   1.0000000
B2   B   0.110109426312988   0.887696162113148   0.375000000000000   1.0000000
B2   B   0.777777207528253   0.388881393720058   0.875000000000000   1.0000000
B2   B   0.444841840840534   0.889087587086928   0.375000000000000   1.0000000
B2   B   0.281369567196655   0.392406148979922   0.375000000000000   1.0000000
B2   B   0.277213788648128   0.557398164863133   0.375000000000000   1.0000000
B2   B   0.611719541635648   0.376527657318566   0.375000000000000   1.0000000
B2   B   0.780461672352156   0.891913127605487   0.375000000000000   1.0000000
B2   B   0.945372177090773   0.388947905790177   0.375000000000000   1.0000000
B2   B   0.111111094568491   0.555545804659337   0.875000000000000   1.0000000
B2   B   0.277767608188178   0.055560249235604   0.875000000000000   1.0000000
B2   B   0.777775243179250   0.555554288256293   0.875000000000000   1.0000000
B2   B   0.611102641568946   0.055551493374694   0.875000000000000   1.0000000
B2   B   0.944457649083817   0.055565935080806   0.875000000000000   1.0000000
B2   B   0.055592704788034   0.111135358446072   0.125026566521105   1.0000000
B2   B   0.555443812933260   0.611115109560709   0.124454050699931   1.0000000
B2   B   0.388859573067337   0.111102544869993   0.124944095179883   1.0000000
B2   B   0.888871664669887   0.611102499001622   0.124990392524179   1.0000000
B2   B   0.722228038709161   0.111097693955818   0.124991799116751   1.0000000
B2   B   0.055562086422988   0.777788919964980   0.624992583617779   1.0000000
B2   B   0.388885798552183   0.777779485918363   0.624991112523988   1.0000000
B2   B   0.222264417526340   0.277798875429838   0.625220167146310   1.0000000
B2   B   0.722187209254306   0.777801291181459   0.625082793077742   1.0000000
B2   B   0.555443812933260   0.277662036705894   0.625545949300077   1.0000000
B2   B   0.888903916081831   0.277768598177983   0.624991911335716   1.0000000
B2   B   0.222229164822227   0.777781249077781   0.124994383629067   1.0000000
B2   B   0.055592704788034   0.277790679675298   0.125026566521105   1.0000000
B2   B   0.388799911902970   0.277758499598705   0.124222678280113   1.0000000
B2   B   0.555533575373809   0.777799342035781   0.124964364412300   1.0000000
B2   B   0.888875505701565   0.777788792850336   0.125001698131315   1.0000000
B2   B   0.722187209254306   0.277719251406182   0.124917206922258   1.0000000
B2   B   0.055570667766816   0.944471572444309   0.624977536916496   1.0000000
B2   B   0.388885798552183   0.944439645967164   0.624991112523988   1.0000000
B2   B   0.222237918493939   0.444419354429245   0.625008895148654   1.0000000
B2   B   0.555310828967924   0.444322081150626   0.626423692410005   1.0000000
B2   B   0.722228038709161   0.944463678086686   0.625008200883242   1.0000000
B2   B   0.888875505701565   0.444420046184571   0.624998301868692   1.0000000
B2   B   0.055570667766816   0.444432428655843   0.125022463083497   1.0000000
B2   B   0.222231247051694   0.944465014233846   0.125016076040024   1.0000000
B2   B   0.555557204453113   0.944445268893217   0.125001893484842   1.0000000
B2   B   0.388799911902970   0.444374745637608   0.124222678280113   1.0000000
B2   B   0.888903916081831   0.944468651237185   0.125008088664284   1.0000000
B2   B   0.722145716650550   0.444383806078356   0.124631820485496   1.0000000
B2   B   0.222231247051694   0.611099566151183   0.624983923959969   1.0000000
B2   B   0.055592704788034   0.111135358446072   0.624973433478901   1.0000000
B2   B   0.555443812933260   0.611115109560709   0.625545949300077   1.0000000
B2   B   0.388859573067337   0.111102544869993   0.625055904820117   1.0000000
B2   B   0.888871664669887   0.611102499001622   0.625009607475822   1.0000000
B2   B   0.055562086422988   0.611106499791350   0.125007416382221   1.0000000
B2   B   0.722228038709161   0.111097693955818   0.625008200883242   1.0000000
B2   B   0.222237918493939   0.111151897398030   0.124991104851346   1.0000000
B2   B   0.388859573067337   0.611090361530680   0.124944095179883   1.0000000
B2   B   0.722145716650557   0.611095243905544   0.124631820485496   1.0000000
B2   B   0.555533575373809   0.111067566671371   0.124964364412300   1.0000000
B2   B   0.388859573067337   0.611090361530680   0.625055904820117   1.0000000
B2   B   0.888916359318217   0.111124846325776   0.124997858097417   1.0000000
B2   B   0.222229164822227   0.777781249077781   0.625005616370940   1.0000000
B2   B   0.055592704788034   0.277790679675298   0.624973433478901   1.0000000
B2   B   0.388799911902970   0.277758499598705   0.625777321719881   1.0000000
B2   B   0.555533575373809   0.777799342035781   0.625035635587700   1.0000000
B2   B   0.888875505701565   0.777788792850336   0.624998301868692   1.0000000
B2   B   0.722187209254306   0.277719251406182   0.625082793077742   1.0000000
B2   B   0.055562086422988   0.777788919964980   0.125007416382221   1.0000000
B2   B   0.388885798552183   0.777779485918363   0.125008887476012   1.0000000
B2   B   0.222264417526340   0.277798875429838   0.124779832853683   1.0000000
B2   B   0.722187209254306   0.777801291181459   0.124917206922258   1.0000000
B2   B   0.555443812933260   0.277662036705894   0.124454050699931   1.0000000
B2   B   0.888903916081831   0.277768598177983   0.125008088664284   1.0000000
B2   B   0.055570667766816   0.444432428655843   0.624977536916496   1.0000000
B2   B   0.222231247051694   0.944465014233846   0.624983923959969   1.0000000
B2   B   0.555557204453113   0.944445268893217   0.624998106515152   1.0000000
B2   B   0.388799911902970   0.444374745637608   0.625777321719881   1.0000000
B2   B   0.888903916081831   0.944468651237185   0.624991911335716   1.0000000
B2   B   0.055570667766816   0.944471572444309   0.125022463083497   1.0000000
B2   B   0.722145716650557   0.444383806078356   0.625368179514497   1.0000000
B2   B   0.388885798552183   0.944439645967164   0.125008887476012   1.0000000
B2   B   0.222237918493939   0.444419354429245   0.124991104851346   1.0000000
B2   B   0.222231247051694   0.611099566151183   0.125016076040024   1.0000000
B2   B   0.555310828967924   0.444322081150626   0.123576307590002   1.0000000
B2   B   0.722228038709161   0.944463678086686   0.124991799116751   1.0000000
B2   B   0.888875505701565   0.444420046184571   0.125001698131315   1.0000000
B2   B   0.055562086422988   0.611106499791350   0.624992583617779   1.0000000
B2   B   0.222237918493939   0.111151897398030   0.625008895148654   1.0000000
B2   B   0.722145716650557   0.611095243905544   0.625368179514497   1.0000000
B2   B   0.555533575373809   0.111067566671371   0.625035635587700   1.0000000
B2   B   0.888916359318217   0.111124846325776   0.625002141902583   1.0000000


