data_1
_audit_creation_method   'vasp2cif'
_cell_length_a    14.93631414619966
_cell_length_b    14.936314146199727
_cell_length_c    13.341276283792837
_cell_angle_alpha    90.0
_cell_angle_beta    90.0
_cell_angle_gamma    119.99999999999984

_symmetry_space_group_name_H-M    'P 1'
loop_
_atom_site_label
_atom_site_type_symbol
_atom_site_fract_x
_atom_site_fract_y
_atom_site_fract_z
_atom_site_occupancy
Pb2   Pb   0.490689610049388   0.412011471691362   0.375000000000000   1.0000000
N2   N   0.111230766667809   0.055595715150012   0.124579366192043   1.0000000
N2   N   0.611240799364222   0.555669868508237   0.127661124478042   1.0000000
N2   N   0.444511245885127   0.055555133964257   0.124797830506781   1.0000000
N2   N   0.944538073445606   0.555609246080984   0.125457485271827   1.0000000
N2   N   0.777866822351942   0.055600077842637   0.125507480877396   1.0000000
N2   N   0.111191445547496   0.722262389440441   0.624476003798615   1.0000000
N2   N   0.444511245885127   0.722289445254220   0.625202169493222   1.0000000
N2   N   0.277937878300277   0.222281533116799   0.624619361223470   1.0000000
N2   N   0.777881528218429   0.722273540549026   0.624530642126027   1.0000000
N2   N   0.611179647914436   0.222229837804745   0.624841676281810   1.0000000
N2   N   0.944563057025786   0.222288901851999   0.624784899071906   1.0000000
N2   N   0.277846374770162   0.722273934750909   0.125235279641884   1.0000000
N2   N   0.111277418521687   0.222305375927506   0.124621246473992   1.0000000
N2   N   0.444548750554076   0.222241196221349   0.125998267996713   1.0000000
N2   N   0.611179647914436   0.722283143443013   0.125158323718188   1.0000000
N2   N   0.944538073445606   0.722262160697940   0.125457485271827   1.0000000
N2   N   0.777862653073986   0.222270859457216   0.125284514106056   1.0000000
N2   N   0.111197846622828   0.888913060645563   0.624854936422488   1.0000000
N2   N   0.444505956773860   0.888919645053612   0.624762576946644   1.0000000
N2   N   0.277937878300277   0.388989678516819   0.624619361223470   1.0000000
N2   N   0.611240799364222   0.388904264189347   0.622338875521968   1.0000000
N2   N   0.777862653073986   0.888925126950146   0.624715485893944   1.0000000
N2   N   0.944550963074072   0.388952680769713   0.624779099862848   1.0000000
N2   N   0.111230766667809   0.388968384851146   0.124579366192043   1.0000000
N2   N   0.277846374770162   0.888905773352522   0.125235279641884   1.0000000
N2   N   0.611177271934800   0.888934561634541   0.125183339900460   1.0000000
N2   N   0.444717038773690   0.389025186053518   0.132855827708969   1.0000000
N2   N   0.944550963074072   0.888931615637713   0.125220900137174   1.0000000
N2   N   0.777881528218429   0.388941321002722   0.125469357873981   1.0000000
N2   N   0.277866480540603   0.555635103007566   0.625346941039805   1.0000000
N2   N   0.111230766667809   0.055595715150012   0.625420633807946   1.0000000
N2   N   0.611240799364222   0.555669868508237   0.622338875521968   1.0000000
N2   N   0.444511245885127   0.055555133964257   0.625202169493222   1.0000000
N2   N   0.944538073445606   0.555609246080984   0.624542514728157   1.0000000
N2   N   0.111197846622828   0.555618119310594   0.125145063577551   1.0000000
N2   N   0.777866822351942   0.055600077842637   0.624492519122632   1.0000000
N2   N   0.277866480540603   0.055564710866426   0.124653058960228   1.0000000
N2   N   0.444548750554076   0.555640887666094   0.125998267996713   1.0000000
N2   N   0.777869755330102   0.555601544331752   0.125986485901120   1.0000000
N2   N   0.611177271934800   0.055576043633587   0.125183339900460   1.0000000
N2   N   0.444548750554076   0.555640887666094   0.624001732003310   1.0000000
N2   N   0.944563057025796   0.055607488507137   0.125215100928096   1.0000000
N2   N   0.277846374770162   0.722273934750909   0.624764720358112   1.0000000
N2   N   0.111277418521687   0.222305375927506   0.625378753526017   1.0000000
N2   N   0.444548750554076   0.222241196221349   0.624001732003310   1.0000000
N2   N   0.611179647914436   0.722283143443013   0.624841676281810   1.0000000
N2   N   0.944538073445606   0.722262160697940   0.624542514728157   1.0000000
N2   N   0.777862653073986   0.222270859457216   0.624715485893944   1.0000000
N2   N   0.111191445547496   0.722262389440441   0.125523996201399   1.0000000
N2   N   0.444511245885127   0.722289445254220   0.124797830506781   1.0000000
N2   N   0.277937878300277   0.222281533116799   0.125380638776556   1.0000000
N2   N   0.777881528218429   0.722273540549026   0.125469357873981   1.0000000
N2   N   0.611179647914436   0.222229837804745   0.125158323718188   1.0000000
N2   N   0.944563057025786   0.222288901851999   0.125215100928096   1.0000000
N2   N   0.111230766667809   0.388968384851146   0.625420633807946   1.0000000
N2   N   0.277846374770162   0.888905773352522   0.624764720358112   1.0000000
N2   N   0.611177271934800   0.888934561634541   0.624816660099561   1.0000000
N2   N   0.444717038773690   0.389025186053518   0.617144172291041   1.0000000
N2   N   0.944550963074072   0.888931615637713   0.624779099862848   1.0000000
N2   N   0.111197846622828   0.888913060645563   0.125145063577551   1.0000000
N2   N   0.777881528218429   0.388941321002722   0.624530642126027   1.0000000
N2   N   0.444505956773860   0.888919645053612   0.125237423053351   1.0000000
N2   N   0.277937878300277   0.388989678516819   0.125380638776556   1.0000000
N2   N   0.277866480540603   0.555635103007566   0.124653058960228   1.0000000
N2   N   0.611240799364222   0.388904264189347   0.127661124478042   1.0000000
N2   N   0.777862653073986   0.888925126950146   0.125284514106056   1.0000000
N2   N   0.944550963074072   0.388952680769713   0.125220900137174   1.0000000
N2   N   0.111197846622828   0.555618119310594   0.624854936422488   1.0000000
N2   N   0.277866480540603   0.055564710866426   0.625346941039805   1.0000000
N2   N   0.777869755330102   0.555601544331752   0.624013514098897   1.0000000
N2   N   0.611177271934800   0.055576043633587   0.624816660099561   1.0000000
N2   N   0.944563057025796   0.055607488507137   0.624784899071906   1.0000000
N2   N   0.057574147984140   0.112235891729607   0.375000000000000   1.0000000
N2   N   0.555152741608088   0.618589765514712   0.375000000000000   1.0000000
N2   N   0.387457602159555   0.103346947361315   0.375000000000000   1.0000000
N2   N   0.888193028456768   0.610763180895092   0.375000000000000   1.0000000
N2   N   0.724147635358357   0.111231358488917   0.375000000000000   1.0000000
N2   N   0.055518014625673   0.777761726784757   0.875000000000000   1.0000000
N2   N   0.388874049491679   0.777766613147990   0.875000000000000   1.0000000
N2   N   0.222188552856588   0.277760943094966   0.875000000000000   1.0000000
N2   N   0.722202329870115   0.777772207523614   0.875000000000000   1.0000000
N2   N   0.555535255981113   0.277773202789897   0.875000000000000   1.0000000
N2   N   0.888864492793847   0.277762325402697   0.875000000000000   1.0000000
N2   N   0.220948930889559   0.777141132111442   0.375000000000000   1.0000000
N2   N   0.057574147984140   0.278671589587871   0.375000000000000   1.0000000
N2   N   0.385618574481438   0.262419503691473   0.375000000000000   1.0000000
N2   N   0.556235828418925   0.781795806074310   0.375000000000000   1.0000000
N2   N   0.889975296728714   0.779037432784062   0.375000000000000   1.0000000
N2   N   0.723997910390169   0.276524185020646   0.375000000000000   1.0000000
N2   N   0.055523215527207   0.944432836349816   0.875000000000000   1.0000000
N2   N   0.388874049491679   0.944440769677045   0.875000000000000   1.0000000
N2   N   0.222190933327142   0.444418444848137   0.875000000000000   1.0000000
N2   N   0.555515734038182   0.444424533685755   0.875000000000000   1.0000000
N2   N   0.722204542123221   0.944438601166403   0.875000000000000   1.0000000
N2   N   0.888859081636386   0.444423668843706   0.875000000000000   1.0000000
N2   N   0.055736864572988   0.444912365577201   0.375000000000000   1.0000000
N2   N   0.220847879016708   0.942068223864496   0.375000000000000   1.0000000
N2   N   0.556408965598754   0.944871149466049   0.375000000000000   1.0000000
N2   N   0.385618574481438   0.456532404123293   0.375000000000000   1.0000000
N2   N   0.890781798569962   0.946134738984942   0.375000000000000   1.0000000
N2   N   0.724268842112302   0.444219371000347   0.375000000000000   1.0000000
N2   N   0.222195409052733   0.611088836181909   0.875000000000000   1.0000000
N2   N   0.055519319722571   0.111094951160760   0.875000000000000   1.0000000
N2   N   0.555535255981113   0.611095386524546   0.875000000000000   1.0000000
N2   N   0.388873688685303   0.111117589050957   0.875000000000000   1.0000000
N2   N   0.888847000599333   0.611090166966388   0.875000000000000   1.0000000
N2   N   0.054552355732689   0.610912264641396   0.375000000000000   1.0000000
N2   N   0.722204542123221   0.111099274290220   0.875000000000000   1.0000000
N2   N   0.221470214982103   0.108536605819942   0.375000000000000   1.0000000
N2   N   0.387457602159555   0.617443988131560   0.375000000000000   1.0000000
N2   N   0.724268842112302   0.613382804445261   0.375000000000000   1.0000000
N2   N   0.556235828418925   0.107773355677942   0.375000000000000   1.0000000
N2   N   0.388873688685304   0.611089432967658   0.875000000000000   1.0000000
N2   N   0.891094870721632   0.112214102027491   0.375000000000000   1.0000000
N2   N   0.222196034474328   0.777764683903820   0.875000000000000   1.0000000
N2   N   0.055519319722571   0.277757701895147   0.875000000000000   1.0000000
N2   N   0.388869654828727   0.277785722166485   0.875000000000000   1.0000000
N2   N   0.555542102126572   0.777771591159906   0.875000000000000   1.0000000
N2   N   0.888859081636386   0.777768746126054   0.875000000000000   1.0000000
N2   N   0.722202329870115   0.277763455679821   0.875000000000000   1.0000000
N2   N   0.054552355732689   0.776973424424622   0.375000000000000   1.0000000
N2   N   0.388229183392163   0.779522415099928   0.375000000000000   1.0000000
N2   N   0.225246018418604   0.279289675875952   0.375000000000000   1.0000000
N2   N   0.723997910390263   0.780807058702888   0.375000000000000   1.0000000
N2   N   0.555152741608088   0.269896309426710   0.375000000000000   1.0000000
N2   N   0.890781798569962   0.277980392918403   0.375000000000000   1.0000000
N2   N   0.055523215527207   0.444423712510705   0.875000000000000   1.0000000
N2   N   0.222195409052733   0.944439906204174   0.875000000000000   1.0000000
N2   N   0.555541611062721   0.944437472198026   0.875000000000000   1.0000000
N2   N   0.388869654828727   0.444417265995596   0.875000000000000   1.0000000
N2   N   0.888864492793847   0.944435500724510   0.875000000000000   1.0000000
N2   N   0.055736864572986   0.944157832329113   0.375000000000000   1.0000000
N2   N   0.722186478503074   0.444424126391076   0.875000000000000   1.0000000
N2   N   0.388229183392163   0.942040101625580   0.375000000000000   1.0000000
N2   N   0.221470214982104   0.446266942495486   0.375000000000000   1.0000000
N2   N   0.220847879016708   0.612112988485539   0.375000000000000   1.0000000
N2   N   0.724147635358357   0.946249610202785   0.375000000000000   1.0000000
N2   N   0.889975296728714   0.444271197277968   0.375000000000000   1.0000000
N2   N   0.055518014625673   0.611089621174221   0.875000000000000   1.0000000
N2   N   0.222190933327142   0.111105821812318   0.875000000000000   1.0000000
N2   N   0.722186478503075   0.611095685445338   0.875000000000000   1.0000000
N2   N   0.555542102126572   0.111103844300018   0.875000000000000   1.0000000
N2   N   0.888862145210959   0.111097739272150   0.875000000000000   1.0000000
B2   B   0.110979269111574   0.054812107921924   0.375000000000000   1.0000000
B2   B   0.621961696089826   0.581413548834922   0.375000000000000   1.0000000
B2   B   0.444687899810047   0.050813903781392   0.375000000000000   1.0000000
B2   B   0.944706029266328   0.555345261595677   0.375000000000000   1.0000000
B2   B   0.780444035704259   0.056888684518793   0.375000000000000   1.0000000
B2   B   0.111102323001730   0.722217828167539   0.875000000000000   1.0000000
B2   B   0.444414129008018   0.722259413527974   0.875000000000000   1.0000000
B2   B   0.277620669874873   0.222129314651937   0.875000000000000   1.0000000
B2   B   0.777831218150097   0.722327989739105   0.875000000000000   1.0000000
B2   B   0.611126821173552   0.222131128909030   0.875000000000000   1.0000000
B2   B   0.944410070352986   0.222185690188044   0.875000000000000   1.0000000
B2   B   0.276911988631304   0.722842617883090   0.375000000000000   1.0000000
B2   B   0.113285291376269   0.223309312354798   0.375000000000000   1.0000000
B2   B   0.441476209519254   0.210287247136349   0.375000000000000   1.0000000
B2   B   0.613845015083730   0.730967406445938   0.375000000000000   1.0000000
B2   B   0.944706029266328   0.722694101004049   0.375000000000000   1.0000000
B2   B   0.780526558311356   0.221471006165578   0.375000000000000   1.0000000
B2   B   0.111080971671904   0.888883328048591   0.875000000000000   1.0000000
B2   B   0.444427359172897   0.888880346253084   0.875000000000000   1.0000000
B2   B   0.277620669874873   0.388824688556240   0.875000000000000   1.0000000
B2   B   0.611133646045086   0.388820390041555   0.875000000000000   1.0000000
B2   B   0.777802398325415   0.888967128083777   0.875000000000000   1.0000000
B2   B   0.944447358218802   0.388845352426265   0.875000000000000   1.0000000
B2   B   0.110979269111574   0.389500494522971   0.375000000000000   1.0000000
B2   B   0.276911988631303   0.887402704081538   0.375000000000000   1.0000000
B2   B   0.613327539351499   0.892120909401198   0.375000000000000   1.0000000
B2   B   0.945748240152173   0.890504163855529   0.375000000000000   1.0000000
B2   B   0.781276276986834   0.386972560622221   0.375000000000000   1.0000000
B2   B   0.277694896073712   0.555537146205727   0.875000000000000   1.0000000
B2   B   0.111026857748730   0.055520827883950   0.875000000000000   1.0000000
B2   B   0.611133646045086   0.555646589336849   0.875000000000000   1.0000000
B2   B   0.444414129008018   0.055488048813392   0.875000000000000   1.0000000
B2   B   0.944479521595609   0.555557285521680   0.875000000000000   1.0000000
B2   B   0.110264728584343   0.555749822928290   0.375000000000000   1.0000000
B2   B   0.777784701530448   0.055559017431892   0.875000000000000   1.0000000
B2   B   0.275976465838522   0.051797400677489   0.375000000000000   1.0000000
B2   B   0.441476209519248   0.564522295716317   0.375000000000000   1.0000000
B2   B   0.779666242511084   0.556499787922214   0.375000000000000   1.0000000
B2   B   0.613327539351499   0.054539963283636   0.375000000000000   1.0000000
B2   B   0.444370761791956   0.555586121286433   0.875000000000000   1.0000000
B2   B   0.946772558583770   0.057252636322026   0.375000000000000   1.0000000
B2   B   0.277742622911326   0.722213803768919   0.875000000000000   1.0000000
B2   B   0.110992924027208   0.222163128680272   0.875000000000000   1.0000000
B2   B   0.444370761791956   0.222117973838821   0.875000000000000   1.0000000
B2   B   0.611126821173552   0.722329025597811   0.875000000000000   1.0000000
B2   B   0.944479521595609   0.722255569407279   0.875000000000000   1.0000000
B2   B   0.777802398325415   0.222168603575017   0.875000000000000   1.0000000
B2   B   0.110293781354431   0.721813557343854   0.375000000000000   1.0000000
B2   B   0.444687899810047   0.727207329362005   0.375000000000000   1.0000000
B2   B   0.276256737586108   0.218896120633862   0.375000000000000   1.0000000
B2   B   0.781276276986834   0.727637049697918   0.375000000000000   1.0000000
B2   B   0.613845015083730   0.216210941971142   0.375000000000000   1.0000000
B2   B   0.946772558583770   0.222853255595093   0.375000000000000   1.0000000
B2   B   0.111026857748730   0.388839363198095   0.875000000000000   1.0000000
B2   B   0.277742622911326   0.888862152475767   0.875000000000000   1.0000000
B2   B   0.611120164226493   0.888933860245939   0.875000000000000   1.0000000
B2   B   0.444308421743103   0.388820877538227   0.875000000000000   1.0000000
B2   B   0.944447358218802   0.888935339125843   0.875000000000000   1.0000000
B2   B   0.110264728584343   0.887848238989397   0.375000000000000   1.0000000
B2   B   0.777831218150097   0.388836561744316   0.875000000000000   1.0000000
B2   B   0.445061721130971   0.889197527232177   0.375000000000000   1.0000000
B2   B   0.276256737586108   0.390693950285562   0.375000000000000   1.0000000
B2   B   0.275976465838522   0.557512398494353   0.375000000000000   1.0000000
B2   B   0.621961696089818   0.373881480588254   0.375000000000000   1.0000000
B2   B   0.780526558311356   0.892388885479132   0.375000000000000   1.0000000
B2   B   0.945748240152173   0.388577409629957   0.375000000000000   1.0000000
B2   B   0.111080971671904   0.555530976956621   0.875000000000000   1.0000000
B2   B   0.277694896073712   0.055491083201298   0.875000000000000   1.0000000
B2   B   0.777837621908920   0.555585477621097   0.875000000000000   1.0000000
B2   B   0.611120164226493   0.055519637313881   0.875000000000000   1.0000000
B2   B   0.944410070352986   0.055557713498254   0.875000000000000   1.0000000
B2   B   0.055625171112216   0.111120137841831   0.124468748119914   1.0000000
B2   B   0.555549106273645   0.611520932987554   0.125106104320338   1.0000000
B2   B   0.388751480479714   0.110721028156196   0.124389358255981   1.0000000
B2   B   0.889355037744105   0.611344185538726   0.124908890706440   1.0000000
B2   B   0.722315610515738   0.111077802572755   0.124952974079973   1.0000000
B2   B   0.055800105724681   0.777886755495597   0.624993505101915   1.0000000
B2   B   0.388855780333142   0.777877952651967   0.625308157124418   1.0000000
B2   B   0.222133577999486   0.277733455666416   0.625290005987849   1.0000000
B2   B   0.722428675545584   0.778077980119759   0.625399197171826   1.0000000
B2   B   0.555549106273645   0.277361506619436   0.624893895679637   1.0000000
B2   B   0.889074932094856   0.277816838206453   0.625123095666349   1.0000000
B2   B   0.222297140556870   0.777815236945129   0.125038358404500   1.0000000
B2   B   0.055625171112216   0.277838366603721   0.124468748119914   1.0000000
B2   B   0.388530731825565   0.277146491604188   0.127183062181619   1.0000000
B2   B   0.555547487734740   0.778012888474163   0.124443936949406   1.0000000
B2   B   0.889246157789429   0.778025288050107   0.124799219461217   1.0000000
B2   B   0.722428675545584   0.277684028759192   0.124600802828172   1.0000000
B2   B   0.055708188677719   0.944489780619172   0.625397325413260   1.0000000
B2   B   0.388855780333142   0.944311161014469   0.625308157124418   1.0000000
B2   B   0.222161403953020   0.444578746415180   0.625726477455522   1.0000000
B2   B   0.556008268883409   0.444670801108369   0.622980217161391   1.0000000
B2   B   0.722315610515738   0.944571141276276   0.625047025919996   1.0000000
B2   B   0.889246157789429   0.444554203072603   0.625200780538779   1.0000000
B2   B   0.055708188677719   0.444551741391886   0.124602674586756   1.0000000
B2   B   0.222246658607441   0.944334032985155   0.124609747031538   1.0000000
B2   B   0.555561615796128   0.944447474564724   0.124823654910869   1.0000000
B2   B   0.388530731825564   0.444717573554704   0.127183062181619   1.0000000
B2   B   0.889074932094856   0.944591427221712   0.124876904333641   1.0000000
B2   B   0.722769291399161   0.444592116488141   0.125159280755242   1.0000000
B2   B   0.222246658607441   0.611245958955601   0.625390252968472   1.0000000
B2   B   0.055625171112216   0.111120137841831   0.625531251880087   1.0000000
B2   B   0.555549106273645   0.611520932987554   0.624893895679637   1.0000000
B2   B   0.388751480479714   0.110721028156192   0.625610641744024   1.0000000
B2   B   0.889355037744105   0.611344185538726   0.625091109293523   1.0000000
B2   B   0.055800105724681   0.611246683562438   0.125006494898067   1.0000000
B2   B   0.722315610515738   0.111077802572755   0.625047025919996   1.0000000
B2   B   0.222161403953020   0.110915990871154   0.124273522544487   1.0000000
B2   B   0.388751480479714   0.611363785656866   0.124389358255981   1.0000000
B2   B   0.722769291399161   0.611510508244340   0.125159280755242   1.0000000
B2   B   0.555547487734740   0.110867932593873   0.124443936949406   1.0000000
B2   B   0.388751480479714   0.611363785656866   0.625610641744024   1.0000000
B2   B   0.889012233783417   0.111172783558373   0.125027148891622   1.0000000
B2   B   0.222297140556870   0.777815236945129   0.624961641595543   1.0000000
B2   B   0.055625171112216   0.277838366603721   0.625531251880087   1.0000000
B2   B   0.388530731825564   0.277146491604188   0.622816937818378   1.0000000
B2   B   0.555547487734737   0.778012888474163   0.625556063050601   1.0000000
B2   B   0.889246157789429   0.778025288050107   0.625200780538779   1.0000000
B2   B   0.722428675545584   0.277684028759192   0.625399197171826   1.0000000
B2   B   0.055800105724681   0.777886755495597   0.125006494898067   1.0000000
B2   B   0.388855780333142   0.777877952651967   0.124691842875612   1.0000000
B2   B   0.222133577999486   0.277733455666416   0.124709994012137   1.0000000
B2   B   0.722428675545584   0.778077980119759   0.124600802828172   1.0000000
B2   B   0.555549106273645   0.277361506619436   0.125106104320338   1.0000000
B2   B   0.889074932094856   0.277816838206453   0.124876904333641   1.0000000
B2   B   0.055708188677718   0.444551741391886   0.625397325413260   1.0000000
B2   B   0.222246658607441   0.944334032985155   0.625390252968472   1.0000000
B2   B   0.555561615796128   0.944447474564724   0.625176345089160   1.0000000
B2   B   0.388530731825564   0.444717573554704   0.622816937818378   1.0000000
B2   B   0.889074932094856   0.944591427221712   0.625123095666349   1.0000000
B2   B   0.055708188677719   0.944489780619172   0.124602674586756   1.0000000
B2   B   0.722769291399161   0.444592116488141   0.624840719244781   1.0000000
B2   B   0.388855780333142   0.944311161014469   0.124691842875612   1.0000000
B2   B   0.222161403953020   0.444578746415180   0.124273522544487   1.0000000
B2   B   0.222246658607441   0.611245958955601   0.124609747031538   1.0000000
B2   B   0.556008268883409   0.444670801108369   0.127019782838624   1.0000000
B2   B   0.722315610515738   0.944571141276276   0.124952974079973   1.0000000
B2   B   0.889246157789429   0.444554203072603   0.124799219461217   1.0000000
B2   B   0.055800105724681   0.611246683562438   0.624993505101915   1.0000000
B2   B   0.222161403953020   0.110915990871154   0.625726477455522   1.0000000
B2   B   0.722769291399161   0.611510508244340   0.624840719244781   1.0000000
B2   B   0.555547487734740   0.110867932593873   0.625556063050601   1.0000000
B2   B   0.889012233783417   0.111172783558373   0.624972851108417   1.0000000


