data_1
_audit_creation_method   'vasp2cif'
_cell_length_a    17.52789999999977
_cell_length_b    17.52789999999977
_cell_length_c    15.0
_cell_angle_alpha    90.0
_cell_angle_beta    90.0
_cell_angle_gamma    119.99999999999916

_symmetry_space_group_name_H-M    'P 1'
loop_
_atom_site_label
_atom_site_type_symbol
_atom_site_fract_x
_atom_site_fract_y
_atom_site_fract_z
_atom_site_occupancy
B2   B   0.905181254454939   0.952746255449687   0.111038831191825   1.0000000
B2   B   0.904730376554652   0.095351409516231   0.111069327164918   1.0000000
B2   B   0.904699509159711   0.238111132913331   0.111081099120495   1.0000000
B2   B   0.904779293842516   0.380967190950916   0.111030166565890   1.0000000
B2   B   0.905307539454171   0.523920507644119   0.111041828479925   1.0000000
B2   B   0.906249021900248   0.667185181635963   0.111109175652264   1.0000000
B2   B   0.906197519562603   0.810465375814151   0.111087519350866   1.0000000
B2   B   0.047830676476502   0.952400405465212   0.111039137957539   1.0000000
B2   B   0.047314358114196   0.094967687611349   0.111033473707418   1.0000000
B2   B   0.047525463420193   0.238165424078098   0.111029413475003   1.0000000
B2   B   0.047430900786911   0.381014607632337   0.111048728163979   1.0000000
B2   B   0.047811486409011   0.523857350001641   0.111038399213254   1.0000000
B2   B   0.048019419105463   0.666863049391092   0.111069567985718   1.0000000
B2   B   0.048200514723115   0.809793442653740   0.111051582810670   1.0000000
B2   B   0.190450931048444   0.952091179641547   0.111036754041051   1.0000000
B2   B   0.189646815384109   0.093959745618167   0.111079672269559   1.0000000
B2   B   0.190190065599890   0.236814827473380   0.110985679342560   1.0000000
B2   B   0.190768859593207   0.381927186664750   0.111000078583518   1.0000000
B2   B   0.190633582277429   0.524134100998808   0.111114433233500   1.0000000
B2   B   0.190020510233294   0.666976365302093   0.111095540925644   1.0000000
B2   B   0.190513550817139   0.809688063237131   0.111033341666410   1.0000000
B2   B   0.333254384551422   0.952312450514469   0.111049566267575   1.0000000
B2   B   0.332998296757966   0.094237577190792   0.111108129322473   1.0000000
B2   B   0.330596018747903   0.234747643095432   0.111042057332312   1.0000000
B2   B   0.333937201610156   0.524665370836800   0.111016120836202   1.0000000
B2   B   0.331868509074107   0.667672099596078   0.111128208929749   1.0000000
B2   B   0.333043283041442   0.810089051503532   0.111089113557067   1.0000000
B2   B   0.476153064600169   0.952815700103046   0.111036989254695   1.0000000
B2   B   0.476211943335658   0.094987122685713   0.111032750592487   1.0000000
B2   B   0.476025166497597   0.237042880636060   0.111076618141878   1.0000000
B2   B   0.473517740173344   0.377040998029987   0.110900303257951   1.0000000
B2   B   0.473208514440697   0.668762853777560   0.110895737072384   1.0000000
B2   B   0.475851029595295   0.810734405193624   0.111076683064683   1.0000000
B2   B   0.619025948351318   0.952578358070125   0.111045862153360   1.0000000
B2   B   0.619103883098701   0.095335362828626   0.111028871953999   1.0000000
B2   B   0.619060732920931   0.238041481998042   0.111042314367543   1.0000000
B2   B   0.619045177962736   0.380943130410842   0.111020353953244   1.0000000
B2   B   0.622904813344212   0.527204101932252   0.110891847823297   1.0000000
B2   B   0.623262659394623   0.667800236707172   0.110898829581198   1.0000000
B2   B   0.618988480828517   0.809609526110943   0.111003919169566   1.0000000
B2   B   0.762061849727066   0.952546180140775   0.111033884316167   1.0000000
B2   B   0.761909392830469   0.095321408002446   0.111082060395916   1.0000000
B2   B   0.761920160441714   0.238126895452510   0.111084869839245   1.0000000
B2   B   0.762097762650035   0.381043659702668   0.111045045365365   1.0000000
B2   B   0.763125079633413   0.524360078459515   0.111067128166582   1.0000000
B2   B   0.765651013879843   0.668595833765024   0.111064549482253   1.0000000
B2   B   0.763254705407965   0.810451541767834   0.111048376656287   1.0000000
C2   C   0.470166904980119   0.521159854099803   0.110532302578784   1.0000000
C2   C   0.520822409950143   0.477509248844570   0.110631793410031   1.0000000
C2   C   0.521617294495485   0.616613904194896   0.110555545912871   1.0000000
N2   N   0.952854873849162   0.905173814630565   0.111035512351008   1.0000000
N2   N   0.952149638408784   0.047583308354430   0.111029822896268   1.0000000
N2   N   0.952077162636499   0.190425950032891   0.111046912446245   1.0000000
N2   N   0.952157758847245   0.333338338299060   0.111033795775655   1.0000000
N2   N   0.952589868306231   0.476205083429925   0.110998165307414   1.0000000
N2   N   0.953054461468641   0.619159013456307   0.111055787163625   1.0000000
N2   N   0.953200492198555   0.762294228251656   0.111071647238832   1.0000000
N2   N   0.095381426351275   0.904707656962235   0.111016695068001   1.0000000
N2   N   0.094707934761798   0.047020093550603   0.111033072397182   1.0000000
N2   N   0.094181538584094   0.189692879815891   0.111007035951945   1.0000000
N2   N   0.094561345589616   0.333453230314075   0.111016819542541   1.0000000
N2   N   0.095384674327055   0.476388950059157   0.111046637613302   1.0000000
N2   N   0.095159568186692   0.619120293516825   0.111048656825801   1.0000000
N2   N   0.095480516485876   0.761999348670471   0.111034629746311   1.0000000
N2   N   0.238126305293050   0.904660141139231   0.111015979102864   1.0000000
N2   N   0.237829111945539   0.046866469509642   0.111065009555213   1.0000000
N2   N   0.236539235345745   0.188229788030123   0.111037513317409   1.0000000
N2   N   0.229279809790309   0.328850994980184   0.110865929618516   1.0000000
N2   N   0.239101885275666   0.477385476796725   0.111060351328027   1.0000000
N2   N   0.237341299988706   0.619469356279527   0.111095857187565   1.0000000
N2   N   0.237968031744060   0.762140508807953   0.111052001326788   1.0000000
N2   N   0.380972511153088   0.905022592611208   0.111040826740841   1.0000000
N2   N   0.381010509494246   0.047203951606194   0.111047988112460   1.0000000
N2   N   0.380721673742811   0.189005137022878   0.111070491815706   1.0000000
N2   N   0.383194751933364   0.326972679982059   0.110941999116573   1.0000000
N2   N   0.383879944729530   0.478935564312616   0.110837794024679   1.0000000
N2   N   0.379335438445819   0.620371512423243   0.111046621144027   1.0000000
N2   N   0.380639018945639   0.762699463508759   0.111082679573539   1.0000000
N2   N   0.523841983807753   0.905469919586558   0.111036358151737   1.0000000
N2   N   0.523956191128171   0.047707105737315   0.110998578597367   1.0000000
N2   N   0.523978526154877   0.189929754526811   0.111037208516635   1.0000000
N2   N   0.524176259261199   0.331994501127040   0.111009701450862   1.0000000
N2   N   0.523338451351153   0.763197859030286   0.111000607417458   1.0000000
N2   N   0.666571721265864   0.904578634323931   0.111015296070812   1.0000000
N2   N   0.666680274534753   0.047638160028733   0.111038735155349   1.0000000
N2   N   0.666749252788485   0.190534550292636   0.111045941720850   1.0000000
N2   N   0.666821341981512   0.333576588020785   0.111021545764875   1.0000000
N2   N   0.667575200155800   0.477220171130012   0.111003719204601   1.0000000
N2   N   0.671366266009707   0.621583714882831   0.110993620673370   1.0000000
N2   N   0.667745110451067   0.762339758505497   0.111004952735890   1.0000000
N2   N   0.809962659454521   0.905199177214574   0.111021879169693   1.0000000
N2   N   0.809374549932848   0.047572148664688   0.111049142543743   1.0000000
N2   N   0.809411319019916   0.190464956340357   0.111074880364542   1.0000000
N2   N   0.809516160501667   0.333388084066898   0.111046142258058   1.0000000
N2   N   0.810056695074258   0.476371744897257   0.111039385380625   1.0000000
N2   N   0.811363528774460   0.619631220887054   0.111068870827304   1.0000000
N2   N   0.811318940653127   0.763249777772455   0.111054003365729   1.0000000


