data_1
_audit_creation_method   'vasp2cif'
_cell_length_a    17.52789999999977
_cell_length_b    17.52789999999977
_cell_length_c    15.0
_cell_angle_alpha    90.0
_cell_angle_beta    90.0
_cell_angle_gamma    119.99999999999916

_symmetry_space_group_name_H-M    'P 1'
loop_
_atom_site_label
_atom_site_type_symbol
_atom_site_fract_x
_atom_site_fract_y
_atom_site_fract_z
_atom_site_occupancy
B2   B   0.905090870529432   0.953146123904493   0.116990482919229   1.0000000
B2   B   0.904459793990790   0.095708744927564   0.117855485311917   1.0000000
B2   B   0.904276958426725   0.238506127150516   0.117306592525641   1.0000000
B2   B   0.904358524837255   0.381344672956017   0.117796037946651   1.0000000
B2   B   0.904918684718019   0.524262947978954   0.119126522855063   1.0000000
B2   B   0.905726465425326   0.667367019100351   0.117991258463773   1.0000000
B2   B   0.905864607968732   0.810618920976933   0.116756356217693   1.0000000
B2   B   0.047677605310688   0.952476765555999   0.116245102423390   1.0000000
B2   B   0.047039832801189   0.095085416531236   0.117352718846731   1.0000000
B2   B   0.046892185496837   0.238145180493884   0.115587037089535   1.0000000
B2   B   0.047036019113266   0.381083442571981   0.113312864036327   1.0000000
B2   B   0.047479441111448   0.523997320274551   0.114496740271112   1.0000000
B2   B   0.048017578257589   0.666882635647707   0.116185958710945   1.0000000
B2   B   0.048064309852760   0.809758653881517   0.115838806994099   1.0000000
B2   B   0.190359248348860   0.952053073613332   0.115607688104311   1.0000000
B2   B   0.189538250045471   0.094271461233328   0.116546023010657   1.0000000
B2   B   0.188827392457148   0.236866084544601   0.112889028485715   1.0000000
B2   B   0.189399821430304   0.380550574476684   0.106797580219970   1.0000000
B2   B   0.189941798615995   0.523794224263378   0.105945722997300   1.0000000
B2   B   0.190602206284536   0.666696760225645   0.110387027930651   1.0000000
B2   B   0.190653789076104   0.809466375184980   0.113848030294462   1.0000000
B2   B   0.333247539373269   0.952110717735480   0.115970923201038   1.0000000
B2   B   0.332757455130272   0.094378920472188   0.117200751039848   1.0000000
B2   B   0.331007396127722   0.235324421064979   0.110818700825670   1.0000000
B2   B   0.330540783348415   0.377626813106724   0.098292195109750   1.0000000
B2   B   0.332738288420445   0.524208274455582   0.094262832768920   1.0000000
B2   B   0.333359892503210   0.666794266831860   0.101151238852432   1.0000000
B2   B   0.333443669844329   0.809535995826235   0.110438140684274   1.0000000
B2   B   0.476149004936766   0.952666200385364   0.114722640091597   1.0000000
B2   B   0.475866895422598   0.095203167731207   0.119013223736223   1.0000000
B2   B   0.475325475393374   0.237364499614837   0.113683571960451   1.0000000
B2   B   0.470508198584689   0.373132656102204   0.086272226572347   1.0000000
B2   B   0.475961751623589   0.667469343757410   0.094354187292307   1.0000000
B2   B   0.476342998887310   0.810215568022284   0.106206744057189   1.0000000
B2   B   0.619070922841817   0.953127057140878   0.113331084540663   1.0000000
B2   B   0.618806849107055   0.095791302768356   0.117957352166930   1.0000000
B2   B   0.618571056375671   0.238617813403837   0.118193342780057   1.0000000
B2   B   0.618568794912090   0.381545874686845   0.107048804066378   1.0000000
B2   B   0.626990681068917   0.529670422820093   0.087030629098921   1.0000000
B2   B   0.622515340554115   0.669636472949261   0.098782806893047   1.0000000
B2   B   0.619608698315214   0.810781210280440   0.106896891019884   1.0000000
B2   B   0.762026474065764   0.953297631867125   0.115090647674725   1.0000000
B2   B   0.761652729276782   0.095889618744979   0.117106175168251   1.0000000
B2   B   0.761484400517722   0.238660995232326   0.118497341099682   1.0000000
B2   B   0.761502565298485   0.381548370661605   0.118196756121651   1.0000000
B2   B   0.762728216442330   0.524792980660908   0.114496142070655   1.0000000
B2   B   0.764771734519677   0.669125154649630   0.111861827176280   1.0000000
B2   B   0.763306739753612   0.811356426679376   0.112856764667399   1.0000000
N2   N   0.952796905710398   0.905486825074156   0.116613951043278   1.0000000
N2   N   0.952114346518609   0.048052460653543   0.117980607678367   1.0000000
N2   N   0.951791664121790   0.190809834270626   0.117613326203447   1.0000000
N2   N   0.951799760047783   0.333658377878295   0.116409306928993   1.0000000
N2   N   0.952193484849971   0.476505557953707   0.117815409333659   1.0000000
N2   N   0.952809606973722   0.619414437951351   0.118781645839679   1.0000000
N2   N   0.953017137779268   0.762463621562297   0.117227574367379   1.0000000
N2   N   0.095311702414037   0.904815313648617   0.115173463449888   1.0000000
N2   N   0.094674321270780   0.047356453030781   0.116847353022703   1.0000000
N2   N   0.094060633343818   0.190003349283611   0.116215162229869   1.0000000
N2   N   0.094296662443176   0.333213880204179   0.112272971789059   1.0000000
N2   N   0.094752937744140   0.476253910791557   0.111273086790985   1.0000000
N2   N   0.095360457567356   0.619174873684860   0.114039580443948   1.0000000
N2   N   0.095499969601038   0.762029482569024   0.115067559409886   1.0000000
N2   N   0.238101620069854   0.904626837280323   0.114878453456441   1.0000000
N2   N   0.237665837592565   0.047105748578568   0.116694434635339   1.0000000
N2   N   0.236458998775856   0.189033626122804   0.114963031168095   1.0000000
N2   N   0.235547691426595   0.331370813248490   0.106822288493609   1.0000000
N2   N   0.236767125047507   0.475741367388359   0.101751373723082   1.0000000
N2   N   0.237997210412905   0.619112582171313   0.105360484743348   1.0000000
N2   N   0.238210852553695   0.761929600327108   0.111561642938468   1.0000000
N2   N   0.380966774790422   0.904779672786246   0.114074978712705   1.0000000
N2   N   0.380714588936066   0.047308465770590   0.118333890591606   1.0000000
N2   N   0.380148933887518   0.189469467452680   0.114903725096604   1.0000000
N2   N   0.377764368018316   0.329267916382984   0.099290135384466   1.0000000
N2   N   0.370183409151415   0.469412145810433   0.090758916826027   1.0000000
N2   N   0.380776749457703   0.619394421676169   0.093623973787934   1.0000000
N2   N   0.381036541165494   0.762154463708584   0.105509424980818   1.0000000
N2   N   0.523893754230840   0.905402772598348   0.111562311259213   1.0000000
N2   N   0.523634537708532   0.047940587180790   0.118094499642339   1.0000000
N2   N   0.523360178067289   0.190611114628061   0.118977482591263   1.0000000
N2   N   0.522793500527248   0.332695859264471   0.103752177130063   1.0000000
N2   N   0.530794936788345   0.630067483434309   0.090667868927031   1.0000000
N2   N   0.524421939215380   0.763407480836819   0.102022238138203   1.0000000
N2   N   0.666957793794328   0.905887654129353   0.112091960677037   1.0000000
N2   N   0.666499026110699   0.048360937590631   0.116347818191192   1.0000000
N2   N   0.666240550611744   0.191158079210060   0.119049868752009   1.0000000
N2   N   0.665949064615297   0.334165446021812   0.115839349157102   1.0000000
N2   N   0.667392258216240   0.477345005071356   0.104431657128784   1.0000000
N2   N   0.670809249322423   0.622357865178718   0.100412774387101   1.0000000
N2   N   0.668792987529458   0.764636794991197   0.107046321738347   1.0000000
N2   N   0.810173224911339   0.906128625011004   0.115589852287879   1.0000000
N2   N   0.809364900625972   0.048386882541039   0.117161842010160   1.0000000
N2   N   0.809074742826045   0.191087312963751   0.117820271289052   1.0000000
N2   N   0.808980699504779   0.333900178529810   0.118904444398834   1.0000000
N2   N   0.809495443628892   0.476754659045107   0.119218613977552   1.0000000
N2   N   0.810612338300446   0.619973900640509   0.116123981983199   1.0000000
N2   N   0.811113685012274   0.763705701019169   0.115391909384063   1.0000000
S2   S   0.517597032469596   0.482827370399669   0.038283515881951   1.0000000


