data_1
_audit_creation_method   'vasp2cif'
_cell_length_a    17.52789999999977
_cell_length_b    17.52789999999977
_cell_length_c    15.0
_cell_angle_alpha    90.0
_cell_angle_beta    90.0
_cell_angle_gamma    119.99999999999916

_symmetry_space_group_name_H-M    'P 1'
loop_
_atom_site_label
_atom_site_type_symbol
_atom_site_fract_x
_atom_site_fract_y
_atom_site_fract_z
_atom_site_occupancy
Sb2   Sb   0.521091213568310   0.492942981517648   0.111080450308767   1.0000000
B2   B   0.905926442916782   0.953010825426030   0.111027177223576   1.0000000
B2   B   0.903219956445571   0.093654990140982   0.111079466753987   1.0000000
B2   B   0.902825314485738   0.236027704893043   0.111096081922711   1.0000000
B2   B   0.903869216126625   0.379291755734037   0.111088323400665   1.0000000
B2   B   0.907903502704219   0.523662068593211   0.111169203790763   1.0000000
B2   B   0.910711569817876   0.668603942382025   0.111133920866552   1.0000000
B2   B   0.910675649303276   0.813308510921883   0.111059043547172   1.0000000
B2   B   0.049415938411368   0.953461445288062   0.111056522587390   1.0000000
B2   B   0.047005283247650   0.094972766213964   0.111053876140876   1.0000000
B2   B   0.045022036541431   0.236391528737225   0.111037297980398   1.0000000
B2   B   0.044778079292505   0.379110648866100   0.111041269323606   1.0000000
B2   B   0.046556521450963   0.523044337695566   0.111098824757187   1.0000000
B2   B   0.049301232612723   0.667295228792043   0.111120256376371   1.0000000
B2   B   0.050545145026668   0.810965375732691   0.111092997681999   1.0000000
B2   B   0.191572875918116   0.952754498128479   0.110973379167647   1.0000000
B2   B   0.189076120025509   0.093848024229579   0.111027059577674   1.0000000
B2   B   0.188325834832886   0.237566035077028   0.111024686890451   1.0000000
B2   B   0.186003185998597   0.379258185860259   0.110982347671130   1.0000000
B2   B   0.185508381921253   0.522708467338532   0.111029135365659   1.0000000
B2   B   0.188474359329779   0.666674737462319   0.111098796296019   1.0000000
B2   B   0.191424188149000   0.810055663385653   0.110950579219567   1.0000000
B2   B   0.333732757789095   0.952049925794558   0.110809948963287   1.0000000
B2   B   0.333174282455086   0.094372972175256   0.110969871950502   1.0000000
B2   B   0.327813213002149   0.233387361239375   0.111066245860556   1.0000000
B2   B   0.330221852652585   0.383388961311534   0.111154567918114   1.0000000
B2   B   0.323678489389605   0.522514970859163   0.111021425398616   1.0000000
B2   B   0.327372399371406   0.666511441577684   0.110995155737111   1.0000000
B2   B   0.332885194755574   0.809404907754031   0.110880811384098   1.0000000
B2   B   0.475886649510588   0.950266763767553   0.110639098780952   1.0000000
B2   B   0.476104860123467   0.093156056851787   0.110844096811312   1.0000000
B2   B   0.475794991499994   0.234782562765983   0.111024871014540   1.0000000
B2   B   0.464075321342083   0.363774884244202   0.111230533246682   1.0000000
B2   B   0.479126698662916   0.577583071158784   0.111353759932315   1.0000000
B2   B   0.465423350822268   0.660274706869076   0.111079852518609   1.0000000
B2   B   0.474798274770646   0.806286997372965   0.110849829959242   1.0000000
B2   B   0.617909003845279   0.949467521893675   0.110822255844995   1.0000000
B2   B   0.618428032072547   0.093054372702830   0.110868492900835   1.0000000
B2   B   0.619041801921085   0.236451134228825   0.111006593093097   1.0000000
B2   B   0.620765929024699   0.380696636092417   0.111094912819562   1.0000000
B2   B   0.646825899831673   0.536874136337385   0.111202333181121   1.0000000
B2   B   0.630404227460812   0.669251910145438   0.111218661966858   1.0000000
B2   B   0.617006374441484   0.805318143935686   0.110979624430769   1.0000000
B2   B   0.760726489182366   0.950391220359580   0.111005133739760   1.0000000
B2   B   0.760484947043490   0.092971009534555   0.111058487519986   1.0000000
B2   B   0.761013198112744   0.236043828779999   0.111067679264486   1.0000000
B2   B   0.762803959072736   0.379632263253862   0.111084650876332   1.0000000
B2   B   0.770776108266135   0.524892127742664   0.111103017901840   1.0000000
B2   B   0.776277133840619   0.674477580085141   0.111064198582961   1.0000000
B2   B   0.765490469949917   0.811145868871078   0.110959461685020   1.0000000
N2   N   0.955463162577060   0.907271742224890   0.111028830370797   1.0000000
N2   N   0.952110191730672   0.047546394234885   0.111033447064954   1.0000000
N2   N   0.950078609872850   0.188483264690405   0.111063187647708   1.0000000
N2   N   0.950058160564208   0.330999647111210   0.111058287637578   1.0000000
N2   N   0.952509213092762   0.474549860286927   0.111116569585716   1.0000000
N2   N   0.955517722103968   0.619168154198816   0.111171024081465   1.0000000
N2   N   0.956620928088076   0.763946872969598   0.111135489202203   1.0000000
N2   N   0.096972966132777   0.905794505235238   0.111031861627166   1.0000000
N2   N   0.094800033452410   0.047477894783197   0.111047973473806   1.0000000
N2   N   0.093179359498421   0.189553085415228   0.111023965127205   1.0000000
N2   N   0.091149039500977   0.330914636115716   0.111001421591681   1.0000000
N2   N   0.091345216984504   0.474167813710912   0.111038336188231   1.0000000
N2   N   0.094227552795010   0.618433348407477   0.111085707076420   1.0000000
N2   N   0.096847813195684   0.762563818636814   0.111035588273691   1.0000000
N2   N   0.238824011727987   0.905036355117981   0.110866171295684   1.0000000
N2   N   0.238020598308149   0.047279628272770   0.110982951864747   1.0000000
N2   N   0.233873591453062   0.187442409933837   0.110991484676438   1.0000000
N2   N   0.234122219293361   0.332351544371418   0.111000137476225   1.0000000
N2   N   0.229659993668570   0.473615600627084   0.110939028405029   1.0000000
N2   N   0.232838425104148   0.618038046648144   0.111072743679201   1.0000000
N2   N   0.237662872227805   0.762027966536608   0.110982193540881   1.0000000
N2   N   0.380872896294260   0.904395814891032   0.110674794256783   1.0000000
N2   N   0.381031641849546   0.046811132878840   0.110847423431082   1.0000000
N2   N   0.379718640387401   0.188668027271561   0.110992975449343   1.0000000
N2   N   0.371297123616851   0.325955494312265   0.111195849075632   1.0000000
N2   N   0.371694781425375   0.478460744246048   0.111164854666798   1.0000000
N2   N   0.370208243368372   0.618084271948628   0.110913534826663   1.0000000
N2   N   0.379121654846686   0.761731448190840   0.110936601286052   1.0000000
N2   N   0.522900200715404   0.902251003797470   0.110648887656627   1.0000000
N2   N   0.523497735206158   0.045497869929643   0.110682614165702   1.0000000
N2   N   0.523808098055180   0.187853775001552   0.110960263860054   1.0000000
N2   N   0.523640466319891   0.329006714931002   0.111101510673421   1.0000000
N2   N   0.521188191929878   0.757500702033344   0.110974251700682   1.0000000
N2   N   0.665367942523371   0.901800947408540   0.110924901032640   1.0000000
N2   N   0.665583495254015   0.045140812329247   0.110893109175410   1.0000000
N2   N   0.666116563065892   0.188391504727385   0.110994210171818   1.0000000
N2   N   0.667381033532004   0.331825903614776   0.111041023374101   1.0000000
N2   N   0.677767534408720   0.476605216578316   0.111088411940599   1.0000000
N2   N   0.685599224225473   0.629792543206953   0.111152382600606   1.0000000
N2   N   0.670275831531569   0.762812460115963   0.110980692190178   1.0000000
N2   N   0.811115490093053   0.905660270954735   0.110966717345026   1.0000000
N2   N   0.808131229379657   0.045698477432240   0.111050212018542   1.0000000
N2   N   0.807958763713685   0.188155235203225   0.111076034100434   1.0000000
N2   N   0.809011010289377   0.331185010033316   0.111062361376976   1.0000000
N2   N   0.814249919976766   0.475065048896307   0.111107839110376   1.0000000
N2   N   0.817840237851713   0.621140201866539   0.111067001174193   1.0000000
N2   N   0.817739777546002   0.767849294735481   0.110963026997846   1.0000000


