data_1
_audit_creation_method   'vasp2cif'
_cell_length_a    14.93631414619966
_cell_length_b    14.936314146199727
_cell_length_c    13.341276283792837
_cell_angle_alpha    90.0
_cell_angle_beta    90.0
_cell_angle_gamma    119.99999999999984

_symmetry_space_group_name_H-M    'P 1'
loop_
_atom_site_label
_atom_site_type_symbol
_atom_site_fract_x
_atom_site_fract_y
_atom_site_fract_z
_atom_site_occupancy
Pb2   Pb   0.444444444444443   0.388888888888886   0.375000000000000   1.0000000
N2   N   0.111137527879982   0.055588928789293   0.125271233089138   1.0000000
N2   N   0.611056895451629   0.555497190869942   0.122189677876455   1.0000000
N2   N   0.444451400909289   0.055588928789296   0.125271233089146   1.0000000
N2   N   0.944430395048275   0.555545968549751   0.125336728888403   1.0000000
N2   N   0.777777777777779   0.055555555555557   0.124979941963240   1.0000000
N2   N   0.111111111111114   0.722222222222221   0.624881927223327   1.0000000
N2   N   0.444451400909289   0.722195805453331   0.624728766910900   1.0000000
N2   N   0.277836142463366   0.222276437881778   0.627810322123583   1.0000000
N2   N   0.777744404544000   0.722195805453331   0.624728766910900   1.0000000
N2   N   0.611094480931788   0.222238852401585   0.625134242757532   1.0000000
N2   N   0.944450918615948   0.222224417296086   0.624838917214223   1.0000000
N2   N   0.277787364783613   0.722217759831957   0.125336728888403   1.0000000
N2   N   0.111144371469898   0.222238852401585   0.124865757242422   1.0000000
N2   N   0.444440295418433   0.222276437881778   0.122189677876452   1.0000000
N2   N   0.611094480931775   0.722188961863429   0.124865757242430   1.0000000
N2   N   0.944430395048275   0.722217759831957   0.125336728888403   1.0000000
N2   N   0.777773498680170   0.222224417296086   0.125161082785821   1.0000000
N2   N   0.111115573501391   0.888902938285054   0.624663271111644   1.0000000
N2   N   0.444451338191212   0.888892335762292   0.624632549892026   1.0000000
N2   N   0.277836142463366   0.388893037914896   0.627810322123583   1.0000000
N2   N   0.611056895451629   0.388893037914896   0.627810322123583   1.0000000
N2   N   0.777773498680170   0.888882414717381   0.624838917214219   1.0000000
N2   N   0.944440997571037   0.388881995142117   0.624632549892026   1.0000000
N2   N   0.111137527879982   0.388881932424039   0.125271233089146   1.0000000
N2   N   0.277787364783613   0.888902938285054   0.125336728888403   1.0000000
N2   N   0.611108916037171   0.888882414717381   0.125161082785821   1.0000000
N2   N   0.444444444444443   0.388888888888886   0.111520978677862   1.0000000
N2   N   0.944440997571037   0.888892335762295   0.125367450107948   1.0000000
N2   N   0.777744404544000   0.388881932424039   0.125271233089138   1.0000000
N2   N   0.277793214250195   0.555540119083195   0.625058922235480   1.0000000
N2   N   0.111137527879979   0.055588928789293   0.624728766910900   1.0000000
N2   N   0.611056895451629   0.555497190869942   0.627810322123583   1.0000000
N2   N   0.444451400909289   0.055588928789293   0.624728766910900   1.0000000
N2   N   0.944430395048275   0.555545968549729   0.624663271111644   1.0000000
N2   N   0.111115573501391   0.555545968549751   0.125336728888403   1.0000000
N2   N   0.777777777777779   0.055555555555557   0.625020058036690   1.0000000
N2   N   0.277793214250194   0.055586428500367   0.124941077764504   1.0000000
N2   N   0.444440295418433   0.555497190869937   0.122189677876453   1.0000000
N2   N   0.777746904832939   0.555540119083195   0.124941077764504   1.0000000
N2   N   0.611108916037171   0.055559834653206   0.125161082785821   1.0000000
N2   N   0.444440295418433   0.555497190869942   0.627810322123583   1.0000000
N2   N   0.944450918615948   0.055559834653206   0.125161082785821   1.0000000
N2   N   0.277787364783613   0.722217759831957   0.624663271111644   1.0000000
N2   N   0.111144371469902   0.222238852401585   0.625134242757532   1.0000000
N2   N   0.444440295418433   0.222276437881778   0.627810322123583   1.0000000
N2   N   0.611094480931775   0.722188961863429   0.625134242757532   1.0000000
N2   N   0.944430395048275   0.722217759831957   0.624663271111644   1.0000000
N2   N   0.777773498680170   0.222224417296086   0.624838917214223   1.0000000
N2   N   0.111111111111114   0.722222222222221   0.125118072776664   1.0000000
N2   N   0.444451400909289   0.722195805453331   0.125271233089146   1.0000000
N2   N   0.277836142463366   0.222276437881778   0.122189677876457   1.0000000
N2   N   0.777744404544000   0.722195805453331   0.125271233089138   1.0000000
N2   N   0.611094480931788   0.222238852401585   0.124865757242422   1.0000000
N2   N   0.944450918615948   0.222224417296086   0.125161082785821   1.0000000
N2   N   0.111137527879981   0.388881932424039   0.624728766910900   1.0000000
N2   N   0.277787364783613   0.888902938285054   0.624663271111644   1.0000000
N2   N   0.611108916037171   0.888882414717381   0.624838917214223   1.0000000
N2   N   0.444444444444443   0.388888888888886   0.638479021322132   1.0000000
N2   N   0.944440997571037   0.888892335762292   0.624632549892026   1.0000000
N2   N   0.111115573501391   0.888902938285054   0.125336728888403   1.0000000
N2   N   0.777744404544000   0.388881932424039   0.624728766910900   1.0000000
N2   N   0.444451338191212   0.888892335762295   0.125367450107948   1.0000000
N2   N   0.277836142463366   0.388893037914896   0.122189677876455   1.0000000
N2   N   0.277793214250194   0.555540119083195   0.124941077764504   1.0000000
N2   N   0.611056895451629   0.388893037914896   0.122189677876460   1.0000000
N2   N   0.777773498680170   0.888882414717381   0.125161082785821   1.0000000
N2   N   0.944440997571037   0.388881995142117   0.125367450107948   1.0000000
N2   N   0.111115573501391   0.555545968549751   0.624663271111644   1.0000000
N2   N   0.277793214250194   0.055586428500367   0.625058922235480   1.0000000
N2   N   0.777746904832939   0.555540119083195   0.625058922235480   1.0000000
N2   N   0.611108916037171   0.055559834653206   0.624838917214219   1.0000000
N2   N   0.944450918615948   0.055559834653206   0.624838917214219   1.0000000
N2   N   0.053580217404621   0.109924334964714   0.375000000000000   1.0000000
N2   N   0.556420728814670   0.612841457629351   0.375000000000000   1.0000000
N2   N   0.386852259264297   0.099539526957823   0.375000000000000   1.0000000
N2   N   0.892978609856061   0.613155971594667   0.375000000000000   1.0000000
N2   N   0.722587669992043   0.110745663341322   0.375000000000000   1.0000000
N2   N   0.055556891731320   0.777776441602059   0.875000000000000   1.0000000
N2   N   0.388883426613360   0.777782197541331   0.875000000000000   1.0000000
N2   N   0.222212803043989   0.277773068188668   0.875000000000000   1.0000000
N2   N   0.722226820849309   0.777777673090502   0.875000000000000   1.0000000
N2   N   0.555560265144679   0.277773068188668   0.875000000000000   1.0000000
N2   N   0.888892204431383   0.277784408862710   0.875000000000000   1.0000000
N2   N   0.221460517700304   0.777396925516870   0.375000000000000   1.0000000
N2   N   0.053580217404621   0.276989215773228   0.375000000000000   1.0000000
N2   N   0.367139664906219   0.234279329812446   0.375000000000000   1.0000000
N2   N   0.556344117560103   0.779753115928751   0.375000000000000   1.0000000
N2   N   0.892090711324115   0.780353832412898   0.375000000000000   1.0000000
N2   N   0.723408998368587   0.276989215773237   0.375000000000000   1.0000000
N2   N   0.055551135791980   0.944434562405324   0.875000000000000   1.0000000
N2   N   0.388883426613360   0.944434562405324   0.875000000000000   1.0000000
N2   N   0.222205262130912   0.444456449062333   0.875000000000000   1.0000000
N2   N   0.555619962151876   0.444476647742599   0.875000000000000   1.0000000
N2   N   0.722220023527417   0.944440047054855   0.875000000000000   1.0000000
N2   N   0.888898770928005   0.444449906719969   0.875000000000000   1.0000000
N2   N   0.052979500920437   0.445070212244557   0.375000000000000   1.0000000
N2   N   0.220177361738662   0.940354723477268   0.375000000000000   1.0000000
N2   N   0.556138100197497   0.944735716765421   0.375000000000000   1.0000000
N2   N   0.367139664906214   0.466193668427095   0.375000000000000   1.0000000
N2   N   0.888597616567908   0.944735716765421   0.375000000000000   1.0000000
N2   N   0.733793806375560   0.446481074069024   0.375000000000000   1.0000000
N2   N   0.222213075020899   0.611120258312482   0.875000000000000   1.0000000
N2   N   0.055555660242849   0.111106512484048   0.875000000000000   1.0000000
N2   N   0.555560265144679   0.611120530289327   0.875000000000000   1.0000000
N2   N   0.388876884270996   0.111082146401933   0.875000000000000   1.0000000
N2   N   0.888907183291479   0.611120258312482   0.875000000000000   1.0000000
N2   N   0.055936407816517   0.611872815633070   0.375000000000000   1.0000000
N2   N   0.722220023527417   0.111113309805935   0.875000000000000   1.0000000
N2   N   0.212687267693483   0.099539526957830   0.375000000000000   1.0000000
N2   N   0.386852259264306   0.620646065639863   0.375000000000000   1.0000000
N2   N   0.733793806375539   0.620646065639863   0.375000000000000   1.0000000
N2   N   0.556344117560109   0.109924334964711   0.375000000000000   1.0000000
N2   N   0.388876884270996   0.611128071202456   0.875000000000000   1.0000000
N2   N   0.888157993349341   0.110745663341322   0.375000000000000   1.0000000
N2   N   0.222219549870701   0.777776441602059   0.875000000000000   1.0000000
N2   N   0.055555660242850   0.277782481092146   0.875000000000000   1.0000000
N2   N   0.388856685590730   0.277713371181513   0.875000000000000   1.0000000
N2   N   0.555550852241278   0.777777673090502   0.875000000000000   1.0000000
N2   N   0.888898770928005   0.777782197541331   0.875000000000000   1.0000000
N2   N   0.722226820849309   0.277782481092146   0.875000000000000   1.0000000
N2   N   0.055936407816516   0.777396925516870   0.375000000000000   1.0000000
N2   N   0.388263121088771   0.780353832412898   0.375000000000000   1.0000000
N2   N   0.220491875703988   0.276912604518642   0.375000000000000   1.0000000
N2   N   0.723408998368587   0.779753115928751   0.375000000000000   1.0000000
N2   N   0.556420728814670   0.276912604518653   0.375000000000000   1.0000000
N2   N   0.888597616567908   0.277195233135835   0.375000000000000   1.0000000
N2   N   0.055551135791979   0.444449906719969   0.875000000000000   1.0000000
N2   N   0.222213075020899   0.944426150041850   0.875000000000000   1.0000000
N2   N   0.555548924470674   0.944441128901945   0.875000000000000   1.0000000
N2   N   0.388856685590730   0.444476647742599   0.875000000000000   1.0000000
N2   N   0.888892204431383   0.944441128901945   0.875000000000000   1.0000000
N2   N   0.052979500920438   0.941242622009216   0.375000000000000   1.0000000
N2   N   0.722251186931387   0.444456449062333   0.875000000000000   1.0000000
N2   N   0.388263121088771   0.941242622009216   0.375000000000000   1.0000000
N2   N   0.212687267693491   0.446481074069024   0.375000000000000   1.0000000
N2   N   0.220177361738662   0.613155971594667   0.375000000000000   1.0000000
N2   N   0.599054003520911   0.466193668427080   0.375000000000000   1.0000000
N2   N   0.722587669992043   0.945175339983988   0.375000000000000   1.0000000
N2   N   0.892090711324114   0.445070212244558   0.375000000000000   1.0000000
N2   N   0.055556891731320   0.611113783462615   0.875000000000000   1.0000000
N2   N   0.222205262130912   0.111082146401932   0.875000000000000   1.0000000
N2   N   0.722251186931387   0.611128071202456   0.875000000000000   1.0000000
N2   N   0.555550852241278   0.111106512484048   0.875000000000000   1.0000000
N2   N   0.888893286278471   0.111113309805935   0.875000000000000   1.0000000
B2   B   0.104722498652046   0.049996094063922   0.375000000000000   1.0000000
B2   B   0.624652798879293   0.567863381580401   0.375000000000000   1.0000000
B2   B   0.445273595411856   0.049996094063923   0.375000000000000   1.0000000
B2   B   0.946240495516675   0.556054512452032   0.375000000000000   1.0000000
B2   B   0.777777777777779   0.055555555555557   0.375000000000000   1.0000000
B2   B   0.111111111111114   0.722222222222221   0.875000000000000   1.0000000
B2   B   0.444437544250243   0.722210489581043   0.875000000000000   1.0000000
B2   B   0.277816517298428   0.222238716842176   0.875000000000000   1.0000000
B2   B   0.777772945330919   0.722210489581043   0.875000000000000   1.0000000
B2   B   0.611093968813390   0.222239364519898   0.875000000000000   1.0000000
B2   B   0.944455414093799   0.222229171474247   0.875000000000000   1.0000000
B2   B   0.277278820881391   0.723519316397979   0.375000000000000   1.0000000
B2   B   0.108942867307982   0.221138100320676   0.375000000000000   1.0000000
B2   B   0.443210582701049   0.208680534454027   0.375000000000000   1.0000000
B2   B   0.612195233012671   0.724390466025296   0.375000000000000   1.0000000
B2   B   0.946240495516675   0.723519316397979   0.375000000000000   1.0000000
B2   B   0.778038196744369   0.221258473963296   0.375000000000000   1.0000000
B2   B   0.111113522565037   0.888890484627839   0.875000000000000   1.0000000
B2   B   0.444440325975298   0.888886829654284   0.875000000000000   1.0000000
B2   B   0.277816517298428   0.388911133789617   0.875000000000000   1.0000000
B2   B   0.611094616491182   0.388911133789617   0.875000000000000   1.0000000
B2   B   0.777773757380486   0.888877919239530   0.875000000000000   1.0000000
B2   B   0.944446503679045   0.388893007358030   0.875000000000000   1.0000000
B2   B   0.104722498652046   0.388059737921473   0.375000000000000   1.0000000
B2   B   0.277278820881391   0.887092837816667   0.375000000000000   1.0000000
B2   B   0.612074859369990   0.890113056114427   0.375000000000000   1.0000000
B2   B   0.944070141275258   0.889263192058070   0.375000000000000   1.0000000
B2   B   0.783337239269428   0.388059737921483   0.375000000000000   1.0000000
B2   B   0.277780051803096   0.555553281530244   0.875000000000000   1.0000000
B2   B   0.111122843752232   0.055560388002426   0.875000000000000   1.0000000
B2   B   0.611094616491182   0.555516816034850   0.875000000000000   1.0000000
B2   B   0.444437544250243   0.055560388002426   0.875000000000000   1.0000000
B2   B   0.944442848705490   0.555556371270531   0.875000000000000   1.0000000
B2   B   0.109814016935315   0.556054512452032   0.375000000000000   1.0000000
B2   B   0.777777777777779   0.055555555555557   0.875000000000000   1.0000000
B2   B   0.274684269166370   0.049368538332783   0.375000000000000   1.0000000
B2   B   0.443210582701064   0.567863381580384   0.375000000000000   1.0000000
B2   B   0.783964795000603   0.558649064166927   0.375000000000000   1.0000000
B2   B   0.612074859369990   0.055295136588935   0.375000000000000   1.0000000
B2   B   0.444422199543711   0.555516816034850   0.875000000000000   1.0000000
B2   B   0.943220277218894   0.055295136588934   0.375000000000000   1.0000000
B2   B   0.277776962062827   0.722219810768300   0.875000000000000   1.0000000
B2   B   0.111145395706477   0.222239364519898   0.875000000000000   1.0000000
B2   B   0.444422199543711   0.222238716842176   0.875000000000000   1.0000000
B2   B   0.611093968813390   0.722187937626830   0.875000000000000   1.0000000
B2   B   0.944442848705490   0.722219810768300   0.875000000000000   1.0000000
B2   B   0.777773757380486   0.222229171474247   0.875000000000000   1.0000000
B2   B   0.111111111111114   0.722222222222221   0.375000000000000   1.0000000
B2   B   0.445273595411865   0.728610834681291   0.375000000000000   1.0000000
B2   B   0.265469951752996   0.208680534454026   0.375000000000000   1.0000000
B2   B   0.783337239269428   0.728610834681291   0.375000000000000   1.0000000
B2   B   0.612195233012671   0.221138100320676   0.375000000000000   1.0000000
B2   B   0.943220277218902   0.221258473963296   0.375000000000000   1.0000000
B2   B   0.111122843752232   0.388895789083086   0.875000000000000   1.0000000
B2   B   0.277776962062827   0.888890484627839   0.875000000000000   1.0000000
B2   B   0.611104161859090   0.888877919239530   0.875000000000000   1.0000000
B2   B   0.444444444444443   0.388888888888886   0.875000000000000   1.0000000
B2   B   0.944446503679045   0.888886829654284   0.875000000000000   1.0000000
B2   B   0.109814016935313   0.887092837816654   0.375000000000000   1.0000000
B2   B   0.777772945330919   0.388895789083086   0.875000000000000   1.0000000
B2   B   0.445193050782723   0.889263192058070   0.375000000000000   1.0000000
B2   B   0.265469951752967   0.390122750632265   0.375000000000000   1.0000000
B2   B   0.274684269166375   0.558649064166927   0.375000000000000   1.0000000
B2   B   0.624652798879283   0.390122750632265   0.375000000000000   1.0000000
B2   B   0.778038196744371   0.890113056114427   0.375000000000000   1.0000000
B2   B   0.944070141275258   0.388140282550606   0.375000000000000   1.0000000
B2   B   0.111113522565037   0.555556371270531   0.875000000000000   1.0000000
B2   B   0.277780051803096   0.055560103606222   0.875000000000000   1.0000000
B2   B   0.777773229727143   0.555553281530244   0.875000000000000   1.0000000
B2   B   0.611104161859090   0.055559575952856   0.875000000000000   1.0000000
B2   B   0.944455414093799   0.055559575952856   0.875000000000000   1.0000000
B2   B   0.055582569783509   0.111139733999967   0.125070152291232   1.0000000
B2   B   0.555505711192329   0.611011422384767   0.122899914710242   1.0000000
B2   B   0.388923530898107   0.111232046453504   0.124307943328432   1.0000000
B2   B   0.888834646497709   0.611083989915530   0.125231625056364   1.0000000
B2   B   0.722220320947227   0.111113012386168   0.125033122509100   1.0000000
B2   B   0.055547535413022   0.777785797920378   0.624807036692673   1.0000000
B2   B   0.388911894207423   0.777761326771794   0.624657676889615   1.0000000
B2   B   0.222321910948584   0.277827622140952   0.627100085289625   1.0000000
B2   B   0.722193599333317   0.777750763549841   0.624929847708770   1.0000000
B2   B   0.555505711192329   0.277827622140952   0.627100085289625   1.0000000
B2   B   0.888883151111848   0.277766302223660   0.624806820539332   1.0000000
B2   B   0.222238262507286   0.777785797920378   0.125192963307224   1.0000000
B2   B   0.055582569783510   0.277776169116870   0.125070152291232   1.0000000
B2   B   0.389023670242242   0.278047340484464   0.118755656879916   1.0000000
B2   B   0.555557164216435   0.777750763549841   0.125070152291232   1.0000000
B2   B   0.888849432564307   0.777761326771794   0.125342323110344   1.0000000
B2   B   0.722193599333317   0.277776169116870   0.125070152291232   1.0000000
B2   B   0.055572006561565   0.944483900769021   0.624657676889615   1.0000000
B2   B   0.388911894207423   0.944483900769021   0.624657676889615   1.0000000
B2   B   0.222308515555413   0.444409802435222   0.625692056671625   1.0000000
B2   B   0.555285992848844   0.444309663091086   0.631244343120096   1.0000000
B2   B   0.722220320947227   0.944440641894312   0.624966877490899   1.0000000
B2   B   0.888849432564307   0.444421439125905   0.624657676889615   1.0000000
B2   B   0.055572006561565   0.444421439125905   0.125342323110344   1.0000000
B2   B   0.222249343417786   0.944498686835619   0.125231625056364   1.0000000
B2   B   0.555567031109669   0.944450182221481   0.125193179460619   1.0000000
B2   B   0.389023670242242   0.444309663091086   0.118755656879912   1.0000000
B2   B   0.888883151111848   0.944450182221481   0.125193179460619   1.0000000
B2   B   0.722101286879841   0.444409802435259   0.124307943328432   1.0000000
B2   B   0.222249343417786   0.611083989915530   0.624768374943683   1.0000000
B2   B   0.055582569783510   0.111139733999967   0.624929847708770   1.0000000
B2   B   0.555505711192329   0.611011422384767   0.627100085289625   1.0000000
B2   B   0.388923530898070   0.111232046453505   0.625692056671625   1.0000000
B2   B   0.888834646497709   0.611083989915530   0.624768374943683   1.0000000
B2   B   0.055547535413022   0.611095070826055   0.125192963307225   1.0000000
B2   B   0.722220320947227   0.111113012386168   0.624966877490899   1.0000000
B2   B   0.222308515555413   0.111232046453505   0.124307943328432   1.0000000
B2   B   0.388923530898107   0.611024817777945   0.124307943328433   1.0000000
B2   B   0.722101286879820   0.611024817777945   0.124307943328432   1.0000000
B2   B   0.555557164216435   0.111139733999967   0.125070152291232   1.0000000
B2   B   0.388923530898070   0.611024817777945   0.625692056671625   1.0000000
B2   B   0.888892691439017   0.111113012386168   0.125033122509100   1.0000000
B2   B   0.222238262507287   0.777785797920378   0.624807036692673   1.0000000
B2   B   0.055582569783510   0.277776169116870   0.624929847708770   1.0000000
B2   B   0.389023670242242   0.278047340484464   0.631244343120096   1.0000000
B2   B   0.555557164216435   0.777750763549844   0.624929847708770   1.0000000
B2   B   0.888849432564307   0.777761326771794   0.624657676889615   1.0000000
B2   B   0.722193599333317   0.277776169116870   0.624929847708770   1.0000000
B2   B   0.055547535413022   0.777785797920378   0.125192963307225   1.0000000
B2   B   0.388911894207423   0.777761326771794   0.125342323110344   1.0000000
B2   B   0.222321910948584   0.277827622140929   0.122899914710242   1.0000000
B2   B   0.722193599333317   0.777750763549844   0.125070152291232   1.0000000
B2   B   0.555505711192329   0.277827622140929   0.122899914710235   1.0000000
B2   B   0.888883151111848   0.277766302223660   0.125193179460619   1.0000000
B2   B   0.055572006561565   0.444421439125905   0.624657676889615   1.0000000
B2   B   0.222249343417786   0.944498686835619   0.624768374943683   1.0000000
B2   B   0.555567031109669   0.944450182221481   0.624806820539332   1.0000000
B2   B   0.389023670242242   0.444309663091086   0.631244343120096   1.0000000
B2   B   0.888883151111848   0.944450182221503   0.624806820539332   1.0000000
B2   B   0.055572006561565   0.944483900769021   0.125342323110344   1.0000000
B2   B   0.722101286879841   0.444409802435222   0.625692056671625   1.0000000
B2   B   0.388911894207423   0.944483900769021   0.125342323110344   1.0000000
B2   B   0.222308515555413   0.444409802435259   0.124307943328432   1.0000000
B2   B   0.222249343417786   0.611083989915530   0.125231625056364   1.0000000
B2   B   0.555285992848844   0.444309663091086   0.118755656879903   1.0000000
B2   B   0.722220320947227   0.944440641894312   0.125033122509100   1.0000000
B2   B   0.888849432564307   0.444421439125905   0.125342323110344   1.0000000
B2   B   0.055547535413022   0.611095070826055   0.624807036692673   1.0000000
B2   B   0.222308515555413   0.111232046453505   0.625692056671625   1.0000000
B2   B   0.722101286879841   0.611024817777945   0.625692056671625   1.0000000
B2   B   0.555557164216435   0.111139733999967   0.624929847708770   1.0000000
B2   B   0.888892691439017   0.111113012386168   0.624966877490899   1.0000000


