data_1
_audit_creation_method   'vasp2cif'
_cell_length_a    14.93631414619966
_cell_length_b    14.936314146199727
_cell_length_c    13.341276283792837
_cell_angle_alpha    90.0
_cell_angle_beta    90.0
_cell_angle_gamma    119.99999999999984

_symmetry_space_group_name_H-M    'P 1'
loop_
_atom_site_label
_atom_site_type_symbol
_atom_site_fract_x
_atom_site_fract_y
_atom_site_fract_z
_atom_site_occupancy
Si2   Si   0.444444444444443   0.388888888888886   0.375000000000000   1.0000000
N2   N   0.111102948112145   0.055543952940214   0.124953982047422   1.0000000
N2   N   0.611129815638722   0.555559037757875   0.126504858267373   1.0000000
N2   N   0.444441004828076   0.055543952940214   0.124953982047422   1.0000000
N2   N   0.944451611893976   0.555556525302528   0.125115629888190   1.0000000
N2   N   0.777777777777779   0.055555555555557   0.125079690831565   1.0000000
N2   N   0.111111111111114   0.722222222222221   0.624791957823577   1.0000000
N2   N   0.444441004828076   0.722230385221193   0.625046017952584   1.0000000
N2   N   0.277774295575468   0.222203517694622   0.623495141732628   1.0000000
N2   N   0.777789380393114   0.722230385221193   0.625046017952584   1.0000000
N2   N   0.611115503896291   0.222217829437053   0.624873158965339   1.0000000
N2   N   0.944446058000528   0.222220094228111   0.624987221918514   1.0000000
N2   N   0.277776808030809   0.722228419924783   0.125115629888190   1.0000000
N2   N   0.111102325540770   0.222217829437053   0.125126841034661   1.0000000
N2   N   0.444429222119155   0.222203517694622   0.126504858267373   1.0000000
N2   N   0.611115503896291   0.722231007792565   0.125126841034661   1.0000000
N2   N   0.944451611893976   0.722228419924783   0.125115629888190   1.0000000
N2   N   0.777774036227596   0.222220094228111   0.125012778081487   1.0000000
N2   N   0.111104913408550   0.888881721439352   0.624884370111811   1.0000000
N2   N   0.444436144754451   0.888884739043890   0.624950860472951   1.0000000
N2   N   0.277774295575468   0.388904111214174   0.623495141732628   1.0000000
N2   N   0.611129815638722   0.388904111214174   0.623495141732628   1.0000000
N2   N   0.777774036227596   0.888887275332801   0.624987221918514   1.0000000
N2   N   0.944448594289439   0.388897188578878   0.624950860472951   1.0000000
N2   N   0.111102948112145   0.388892328505253   0.124953982047422   1.0000000
N2   N   0.277776808030809   0.888881721439352   0.125115629888190   1.0000000
N2   N   0.611113239105209   0.888887275332801   0.125012778081487   1.0000000
N2   N   0.444444444444443   0.388888888888886   0.131781502556780   1.0000000
N2   N   0.944448594289439   0.888884739043890   0.125049139527049   1.0000000
N2   N   0.777789380393114   0.388892328505253   0.124953982047422   1.0000000
N2   N   0.277776770281368   0.555556563051977   0.624808007447839   1.0000000
N2   N   0.111102948112145   0.055543952940214   0.625046017952584   1.0000000
N2   N   0.611129815638722   0.555559037757875   0.623495141732628   1.0000000
N2   N   0.444441004828076   0.055543952940214   0.625046017952584   1.0000000
N2   N   0.944451611893976   0.555556525302528   0.624884370111811   1.0000000
N2   N   0.111104913408550   0.555556525302528   0.125115629888190   1.0000000
N2   N   0.777777777777779   0.055555555555557   0.624920309168433   1.0000000
N2   N   0.277776770281368   0.055553540562735   0.125191992552161   1.0000000
N2   N   0.444429222119155   0.555559037757875   0.126504858267373   1.0000000
N2   N   0.777779792770607   0.555556563051977   0.125191992552161   1.0000000
N2   N   0.611113239105209   0.055559297105738   0.125012778081487   1.0000000
N2   N   0.444429222119155   0.555559037757875   0.623495141732628   1.0000000
N2   N   0.944446058000528   0.055559297105738   0.125012778081487   1.0000000
N2   N   0.277776808030809   0.722228419924783   0.624884370111811   1.0000000
N2   N   0.111102325540770   0.222217829437053   0.624873158965339   1.0000000
N2   N   0.444429222119155   0.222203517694622   0.623495141732628   1.0000000
N2   N   0.611115503896291   0.722231007792565   0.624873158965339   1.0000000
N2   N   0.944451611893976   0.722228419924783   0.624884370111811   1.0000000
N2   N   0.777774036227596   0.222220094228111   0.624987221918514   1.0000000
N2   N   0.111111111111114   0.722222222222221   0.125208042176430   1.0000000
N2   N   0.444441004828076   0.722230385221193   0.124953982047422   1.0000000
N2   N   0.277774295575468   0.222203517694622   0.126504858267373   1.0000000
N2   N   0.777789380393114   0.722230385221193   0.124953982047422   1.0000000
N2   N   0.611115503896291   0.222217829437053   0.125126841034661   1.0000000
N2   N   0.944446058000528   0.222220094228111   0.125012778081487   1.0000000
N2   N   0.111102948112145   0.388892328505253   0.625046017952584   1.0000000
N2   N   0.277776808030809   0.888881721439352   0.624884370111811   1.0000000
N2   N   0.611113239105209   0.888887275332801   0.624987221918514   1.0000000
N2   N   0.444444444444443   0.388888888888886   0.618218497443226   1.0000000
N2   N   0.944448594289439   0.888884739043890   0.624950860472951   1.0000000
N2   N   0.111104913408550   0.888881721439352   0.125115629888190   1.0000000
N2   N   0.777789380393114   0.388892328505253   0.625046017952584   1.0000000
N2   N   0.444436144754451   0.888884739043890   0.125049139527049   1.0000000
N2   N   0.277774295575468   0.388904111214174   0.126504858267373   1.0000000
N2   N   0.277776770281368   0.555556563051977   0.125191992552161   1.0000000
N2   N   0.611129815638722   0.388904111214174   0.126504858267373   1.0000000
N2   N   0.777774036227596   0.888887275332801   0.125012778081487   1.0000000
N2   N   0.944448594289439   0.388897188578878   0.125049139527049   1.0000000
N2   N   0.111104913408550   0.555556525302528   0.624884370111811   1.0000000
N2   N   0.277776770281368   0.055553540562735   0.624808007447839   1.0000000
N2   N   0.777779792770607   0.555556563051977   0.624808007447839   1.0000000
N2   N   0.611113239105209   0.055559297105738   0.624987221918514   1.0000000
N2   N   0.944446058000528   0.055559297105738   0.624987221918514   1.0000000
N2   N   0.054789727856291   0.110583123411048   0.375000000000000   1.0000000
N2   N   0.556086774424043   0.612173548848108   0.375000000000000   1.0000000
N2   N   0.388197029813336   0.107319572338418   0.375000000000000   1.0000000
N2   N   0.890152705816315   0.611743019574835   0.375000000000000   1.0000000
N2   N   0.722350117995168   0.110983215338169   0.375000000000000   1.0000000
N2   N   0.055552818128816   0.777780515204514   0.875000000000000   1.0000000
N2   N   0.388888211235913   0.777778119596220   0.875000000000000   1.0000000
N2   N   0.222233485566937   0.277783409450136   0.875000000000000   1.0000000
N2   N   0.722217345093864   0.777777659267413   0.875000000000000   1.0000000
N2   N   0.555549923883200   0.277783409450136   0.875000000000000   1.0000000
N2   N   0.888889601323025   0.277779202646056   0.875000000000000   1.0000000
N2   N   0.221997307985609   0.777665320659468   0.375000000000000   1.0000000
N2   N   0.054789727856291   0.277539937778586   0.375000000000000   1.0000000
N2   N   0.382423966465125   0.264847932930256   0.375000000000000   1.0000000
N2   N   0.555793395554751   0.778543605477037   0.375000000000000   1.0000000
N2   N   0.889959935848248   0.778657142667753   0.375000000000000   1.0000000
N2   N   0.722750209922293   0.277539937778586   0.375000000000000   1.0000000
N2   N   0.055555213737123   0.944443424973043   0.875000000000000   1.0000000
N2   N   0.388888211235913   0.944443424973043   0.875000000000000   1.0000000
N2   N   0.222234353391866   0.444439575219658   0.875000000000000   1.0000000
N2   N   0.555537846556497   0.444435589944913   0.875000000000000   1.0000000
N2   N   0.722220636556905   0.944441273113812   0.875000000000000   1.0000000
N2   N   0.888889908360285   0.444445122097415   0.875000000000000   1.0000000
N2   N   0.054676190665577   0.444636126513826   0.375000000000000   1.0000000
N2   N   0.221590313758507   0.943180627517014   0.375000000000000   1.0000000
N2   N   0.555746923539206   0.944540128436276   0.375000000000000   1.0000000
N2   N   0.382423966465125   0.450909366868204   0.375000000000000   1.0000000
N2   N   0.888793204897052   0.944540128436276   0.375000000000000   1.0000000
N2   N   0.726013760994917   0.445136303519993   0.375000000000000   1.0000000
N2   N   0.222225684852744   0.611107648480592   0.875000000000000   1.0000000
N2   N   0.055555674065923   0.111115988239471   0.875000000000000   1.0000000
N2   N   0.555549923883200   0.611099847766406   0.875000000000000   1.0000000
N2   N   0.388893758113670   0.111128111505550   0.875000000000000   1.0000000
N2   N   0.888881963627833   0.611107648480592   0.875000000000000   1.0000000
N2   N   0.055668012673867   0.611336025347728   0.375000000000000   1.0000000
N2   N   0.722220636556905   0.111112696776423   0.875000000000000   1.0000000
N2   N   0.219122542525075   0.107319572338418   0.375000000000000   1.0000000
N2   N   0.388197029813336   0.614210790808260   0.375000000000000   1.0000000
N2   N   0.726013760994917   0.614210790808260   0.375000000000000   1.0000000
N2   N   0.555793395554751   0.110583123411048   0.375000000000000   1.0000000
N2   N   0.388893758113670   0.611098979941461   0.875000000000000   1.0000000
N2   N   0.888633097342996   0.110983215338169   0.375000000000000   1.0000000
N2   N   0.222227697075697   0.777780515204514   0.875000000000000   1.0000000
N2   N   0.055555674065923   0.277773019159788   0.875000000000000   1.0000000
N2   N   0.388897743388416   0.277795486776846   0.875000000000000   1.0000000
N2   N   0.555560314173556   0.777777659267413   0.875000000000000   1.0000000
N2   N   0.888889908360285   0.777778119596220   0.875000000000000   1.0000000
N2   N   0.722217345093864   0.277773019159788   0.875000000000000   1.0000000
N2   N   0.055668012673867   0.777665320659468   0.375000000000000   1.0000000
N2   N   0.388697206819503   0.778657142667753   0.375000000000000   1.0000000
N2   N   0.221159784485235   0.277246558909285   0.375000000000000   1.0000000
N2   N   0.722750209922293   0.778543605477037   0.375000000000000   1.0000000
N2   N   0.556086774424043   0.277246558909285   0.375000000000000   1.0000000
N2   N   0.888793204897052   0.277586409794121   0.375000000000000   1.0000000
N2   N   0.055555213737123   0.444445122097415   0.875000000000000   1.0000000
N2   N   0.222225684852744   0.944451369705496   0.875000000000000   1.0000000
N2   N   0.555554130687286   0.944443732010303   0.875000000000000   1.0000000
N2   N   0.388897743388416   0.444435589944913   0.875000000000000   1.0000000
N2   N   0.888889601323025   0.944443732010303   0.875000000000000   1.0000000
N2   N   0.054676190665577   0.943373397485081   0.375000000000000   1.0000000
N2   N   0.722205221827784   0.444439575219658   0.875000000000000   1.0000000
N2   N   0.388697206819503   0.943373397485081   0.375000000000000   1.0000000
N2   N   0.219122542525075   0.445136303519993   0.375000000000000   1.0000000
N2   N   0.221590313758507   0.611743019574835   0.375000000000000   1.0000000
N2   N   0.568485400403079   0.450909366868204   0.375000000000000   1.0000000
N2   N   0.722350117995168   0.944700235990332   0.375000000000000   1.0000000
N2   N   0.889959935848248   0.444636126513826   0.375000000000000   1.0000000
N2   N   0.055552818128816   0.611105636257630   0.875000000000000   1.0000000
N2   N   0.222234353391866   0.111128111505550   0.875000000000000   1.0000000
N2   N   0.722205221827784   0.611098979941461   0.875000000000000   1.0000000
N2   N   0.555560314173556   0.111115988239471   0.875000000000000   1.0000000
N2   N   0.888892060219516   0.111112696776423   0.875000000000000   1.0000000
B2   B   0.108676148352659   0.053376316110646   0.375000000000000   1.0000000
B2   B   0.617026990896590   0.561605978371739   0.375000000000000   1.0000000
B2   B   0.444700167757979   0.053376316110646   0.375000000000000   1.0000000
B2   B   0.945101764891128   0.555759017415703   0.375000000000000   1.0000000
B2   B   0.777777777777779   0.055555555555557   0.375000000000000   1.0000000
B2   B   0.111111111111114   0.722222222222221   0.875000000000000   1.0000000
B2   B   0.444452572716400   0.722246773287031   0.875000000000000   1.0000000
B2   B   0.277738006314068   0.222203742065573   0.875000000000000   1.0000000
B2   B   0.777794200570640   0.722246773287031   0.875000000000000   1.0000000
B2   B   0.611124933865602   0.222208399467740   0.875000000000000   1.0000000
B2   B   0.944423514711682   0.222216990321780   0.875000000000000   1.0000000
B2   B   0.277574315917626   0.722676080808759   0.375000000000000   1.0000000
B2   B   0.109611236798795   0.221472285066062   0.375000000000000   1.0000000
B2   B   0.444578987475151   0.216306342436747   0.375000000000000   1.0000000
B2   B   0.611861048267273   0.723722096534540   0.375000000000000   1.0000000
B2   B   0.945101764891128   0.722676080808759   0.375000000000000   1.0000000
B2   B   0.777994304446042   0.221837707678937   0.375000000000000   1.0000000
B2   B   0.111115225423125   0.888888541357416   0.875000000000000   1.0000000
B2   B   0.444458973518011   0.888896153425668   0.875000000000000   1.0000000
B2   B   0.277738006314068   0.388867597581824   0.875000000000000   1.0000000
B2   B   0.611129591267771   0.388867597581824   0.875000000000000   1.0000000
B2   B   0.777793475610089   0.888909818621647   0.875000000000000   1.0000000
B2   B   0.944437179907661   0.388874359815317   0.875000000000000   1.0000000
B2   B   0.108676148352659   0.388633165575349   0.375000000000000   1.0000000
B2   B   0.277574315917626   0.888231568442200   0.375000000000000   1.0000000
B2   B   0.611495625654399   0.889489930100435   0.375000000000000   1.0000000
B2   B   0.944289779155413   0.889043554177915   0.375000000000000   1.0000000
B2   B   0.779957017222689   0.388633165575349   0.375000000000000   1.0000000
B2   B   0.277764723483318   0.555568609850018   0.875000000000000   1.0000000
B2   B   0.111086560046304   0.055539132762704   0.875000000000000   1.0000000
B2   B   0.611129591267771   0.555595327019266   0.875000000000000   1.0000000
B2   B   0.444452572716400   0.055539132762704   0.875000000000000   1.0000000
B2   B   0.944444791975912   0.555560017399024   0.875000000000000   1.0000000
B2   B   0.110657252524576   0.555759017415703   0.375000000000000   1.0000000
B2   B   0.777777777777779   0.055555555555557   0.875000000000000   1.0000000
B2   B   0.276615203123465   0.053230406246925   0.375000000000000   1.0000000
B2   B   0.444578987475151   0.561605978371739   0.375000000000000   1.0000000
B2   B   0.780102927086413   0.556718130209876   0.375000000000000   1.0000000
B2   B   0.611495625654399   0.055339028887301   0.375000000000000   1.0000000
B2   B   0.444465735751505   0.555595327019266   0.875000000000000   1.0000000
B2   B   0.943843403232894   0.055339028887301   0.375000000000000   1.0000000
B2   B   0.277773315934306   0.722218107910211   0.875000000000000   1.0000000
B2   B   0.111083465602144   0.222208399467740   0.875000000000000   1.0000000
B2   B   0.444465735751505   0.222203742065573   0.875000000000000   1.0000000
B2   B   0.611124933865602   0.722249867731185   0.875000000000000   1.0000000
B2   B   0.944444791975912   0.722218107910211   0.875000000000000   1.0000000
B2   B   0.777793475610089   0.222216990321780   0.875000000000000   1.0000000
B2   B   0.111111111111114   0.722222222222221   0.375000000000000   1.0000000
B2   B   0.444700167757979   0.724657184980676   0.375000000000000   1.0000000
B2   B   0.271727354961589   0.216306342436747   0.375000000000000   1.0000000
B2   B   0.779957017222689   0.724657184980676   0.375000000000000   1.0000000
B2   B   0.611861048267273   0.221472285066062   0.375000000000000   1.0000000
B2   B   0.943843403232894   0.221837707678937   0.375000000000000   1.0000000
B2   B   0.111086560046304   0.388880760616929   0.875000000000000   1.0000000
B2   B   0.277773315934306   0.888888541357416   0.875000000000000   1.0000000
B2   B   0.611116343011555   0.888909818621647   0.875000000000000   1.0000000
B2   B   0.444444444444443   0.388888888888886   0.875000000000000   1.0000000
B2   B   0.944437179907661   0.888896153425668   0.875000000000000   1.0000000
B2   B   0.110657252524576   0.888231568442200   0.375000000000000   1.0000000
B2   B   0.777794200570640   0.388880760616929   0.875000000000000   1.0000000
B2   B   0.444753775022497   0.889043554177915   0.375000000000000   1.0000000
B2   B   0.271727354961589   0.388754345858178   0.375000000000000   1.0000000
B2   B   0.276615203123465   0.556718130209876   0.375000000000000   1.0000000
B2   B   0.617026990896590   0.388754345858178   0.375000000000000   1.0000000
B2   B   0.777994304446042   0.889489930100435   0.375000000000000   1.0000000
B2   B   0.944289779155413   0.388579558310832   0.375000000000000   1.0000000
B2   B   0.111115225423125   0.555560017399024   0.875000000000000   1.0000000
B2   B   0.277764723483318   0.055529446966629   0.875000000000000   1.0000000
B2   B   0.777803886366706   0.555568609850018   0.875000000000000   1.0000000
B2   B   0.611116343011555   0.055539857723241   0.875000000000000   1.0000000
B2   B   0.944423514711682   0.055539857723241   0.875000000000000   1.0000000
B2   B   0.055497293259985   0.111049259125299   0.124936017389096   1.0000000
B2   B   0.555625800256193   0.611251600512386   0.125842199282450   1.0000000
B2   B   0.388848981672360   0.110949871726183   0.125261686048251   1.0000000
B2   B   0.888968360884055   0.611150847108695   0.125015328741546   1.0000000
B2   B   0.722238668698972   0.111094664634362   0.125009118456936   1.0000000
B2   B   0.055572449513167   0.777760883820160   0.624883249571507   1.0000000
B2   B   0.388877925226230   0.777801089946425   0.625034206591847   1.0000000
B2   B   0.222081732820958   0.277707533077143   0.624157800717557   1.0000000
B2   B   0.722284074208022   0.777836040073358   0.625063982610913   1.0000000
B2   B   0.555625800256193   0.277707533077143   0.624157800717557   1.0000000
B2   B   0.888887796974590   0.277775593949204   0.625014941730779   1.0000000
B2   B   0.222188434306995   0.777760883820160   0.125116750428492   1.0000000
B2   B   0.055497293259985   0.277781367468014   0.124936017389096   1.0000000
B2   B   0.388733565614328   0.277467131228664   0.127753739842754   1.0000000
B2   B   0.555551965865329   0.777836040073358   0.124936017389096   1.0000000
B2   B   0.888923164720188   0.777801089946425   0.124965793408152   1.0000000
B2   B   0.722284074208022   0.277781367468014   0.124936017389096   1.0000000
B2   B   0.055532243386909   0.944410168613141   0.625034206591847   1.0000000
B2   B   0.388877925226230   0.944410168613141   0.625034206591847   1.0000000
B2   B   0.222100890053816   0.444484351660969   0.624738313951750   1.0000000
B2   B   0.555866202104672   0.444599767719000   0.622246260157238   1.0000000
B2   B   0.722238668698972   0.944477337397948   0.624990881543064   1.0000000
B2   B   0.888923164720188   0.444455408107099   0.625034206591847   1.0000000
B2   B   0.055532243386909   0.444455408107099   0.124965793408152   1.0000000
B2   B   0.222182486224640   0.944364972449274   0.125015328741546   1.0000000
B2   B   0.555557739384125   0.944445536358738   0.124985058269221   1.0000000
B2   B   0.388733565614328   0.444599767719000   0.127753739842754   1.0000000
B2   B   0.888887796974590   0.944445536358738   0.124985058269221   1.0000000
B2   B   0.722383461607153   0.444484351660969   0.125261686048251   1.0000000
B2   B   0.222182486224640   0.611150847108695   0.624984671258461   1.0000000
B2   B   0.055497293259985   0.111049259125299   0.625063982610913   1.0000000
B2   B   0.555625800256193   0.611251600512386   0.624157800717557   1.0000000
B2   B   0.388848981672360   0.110949871726183   0.624738313951750   1.0000000
B2   B   0.888968360884055   0.611150847108695   0.624984671258461   1.0000000
B2   B   0.055572449513167   0.611144899026340   0.125116750428492   1.0000000
B2   B   0.722238668698972   0.111094664634362   0.624990881543064   1.0000000
B2   B   0.222100890053816   0.110949871726183   0.125261686048251   1.0000000
B2   B   0.388848981672360   0.611232443279518   0.125261686048251   1.0000000
B2   B   0.722383461607153   0.611232443279518   0.125261686048251   1.0000000
B2   B   0.555551965865329   0.111049259125299   0.124936017389096   1.0000000
B2   B   0.388848981672360   0.611232443279518   0.624738313951750   1.0000000
B2   B   0.888855995935381   0.111094664634362   0.125009118456936   1.0000000
B2   B   0.222188434306995   0.777760883820160   0.624883249571507   1.0000000
B2   B   0.055497293259985   0.277781367468014   0.625063982610913   1.0000000
B2   B   0.388733565614328   0.277467131228664   0.622246260157238   1.0000000
B2   B   0.555551965865329   0.777836040073358   0.625063982610913   1.0000000
B2   B   0.888923164720188   0.777801089946425   0.625034206591847   1.0000000
B2   B   0.722284074208022   0.277781367468014   0.625063982610913   1.0000000
B2   B   0.055572449513167   0.777760883820160   0.125116750428492   1.0000000
B2   B   0.388877925226230   0.777801089946425   0.124965793408152   1.0000000
B2   B   0.222081732820958   0.277707533077143   0.125842199282450   1.0000000
B2   B   0.722284074208022   0.777836040073358   0.124936017389096   1.0000000
B2   B   0.555625800256193   0.277707533077143   0.125842199282450   1.0000000
B2   B   0.888887796974590   0.277775593949204   0.124985058269221   1.0000000
B2   B   0.055532243386909   0.444455408107099   0.625034206591847   1.0000000
B2   B   0.222182486224640   0.944364972449274   0.624984671258461   1.0000000
B2   B   0.555557739384125   0.944445536358738   0.625014941730779   1.0000000
B2   B   0.388733565614328   0.444599767719000   0.622246260157238   1.0000000
B2   B   0.888887796974590   0.944445536358738   0.625014941730779   1.0000000
B2   B   0.055532243386909   0.944410168613141   0.124965793408152   1.0000000
B2   B   0.722383461607153   0.444484351660969   0.624738313951750   1.0000000
B2   B   0.388877925226230   0.944410168613141   0.124965793408152   1.0000000
B2   B   0.222100890053816   0.444484351660969   0.125261686048251   1.0000000
B2   B   0.222182486224640   0.611150847108695   0.125015328741546   1.0000000
B2   B   0.555866202104672   0.444599767719000   0.127753739842754   1.0000000
B2   B   0.722238668698972   0.944477337397948   0.125009118456936   1.0000000
B2   B   0.888923164720188   0.444455408107099   0.124965793408152   1.0000000
B2   B   0.055572449513167   0.611144899026340   0.624883249571507   1.0000000
B2   B   0.222100890053816   0.110949871726183   0.624738313951750   1.0000000
B2   B   0.722383461607153   0.611232443279518   0.624738313951750   1.0000000
B2   B   0.555551965865329   0.111049259125299   0.625063982610913   1.0000000
B2   B   0.888855995935381   0.111094664634362   0.624990881543064   1.0000000


