data_1
_audit_creation_method   'vasp2cif'
_cell_length_a    14.93631414619966
_cell_length_b    14.936314146199727
_cell_length_c    13.341276283792837
_cell_angle_alpha    90.0
_cell_angle_beta    90.0
_cell_angle_gamma    119.99999999999984

_symmetry_space_group_name_H-M    'P 1'
loop_
_atom_site_label
_atom_site_type_symbol
_atom_site_fract_x
_atom_site_fract_y
_atom_site_fract_z
_atom_site_occupancy
Al2   Al   0.484593132268641   0.408963232800995   0.375000000000000   1.0000000
N2   N   0.111469931643737   0.055739179986449   0.124755888197366   1.0000000
N2   N   0.611854437438685   0.556329822165812   0.125043180808196   1.0000000
N2   N   0.444905681949920   0.055771042195451   0.124734287623861   1.0000000
N2   N   0.944865980371713   0.555745556160724   0.124644763892251   1.0000000
N2   N   0.778267513606543   0.055800423469930   0.125542643963439   1.0000000
N2   N   0.111523130294732   0.722428231814053   0.624637813032453   1.0000000
N2   N   0.444905681949920   0.722467973087850   0.625265712376169   1.0000000
N2   N   0.277975415727741   0.222307434819149   0.626397341574236   1.0000000
N2   N   0.778321217946427   0.722677085449503   0.626264177131400   1.0000000
N2   N   0.611666898103401   0.222307767149338   0.626295547576497   1.0000000
N2   N   0.944858684859693   0.222396220686472   0.624679389310332   1.0000000
N2   N   0.278205056836602   0.722432354419116   0.125372796356987   1.0000000
N2   N   0.111399327164827   0.222366330249088   0.124602871225433   1.0000000
N2   N   0.444900490980920   0.222440750058822   0.124353816449968   1.0000000
N2   N   0.611666898103401   0.722692464287388   0.123704452423505   1.0000000
N2   N   0.944865980371713   0.722453757544232   0.124644763892251   1.0000000
N2   N   0.778291306269876   0.222346509181497   0.124879556171270   1.0000000
N2   N   0.111527128274696   0.889111103216735   0.624893893594176   1.0000000
N2   N   0.444897999716820   0.889115666525105   0.624588714539511   1.0000000
N2   N   0.277975415727741   0.389001314241902   0.626397341574236   1.0000000
N2   N   0.611854437438685   0.388857948606265   0.624956819191802   1.0000000
N2   N   0.778291306269876   0.889278130421695   0.625120443828703   1.0000000
N2   N   0.944893273270100   0.389054214255131   0.625081452516806   1.0000000
N2   N   0.111469931643737   0.389064084990605   0.124755888197366   1.0000000
N2   N   0.278205056836602   0.889106035750821   0.125372796356987   1.0000000
N2   N   0.611603869489958   0.889193222839890   0.125210071931763   1.0000000
N2   N   0.444301886831896   0.388817610082618   0.126525316693565   1.0000000
N2   N   0.944893273270100   0.889172392348345   0.124918547483195   1.0000000
N2   N   0.778321217946427   0.388977465830236   0.123735822868610   1.0000000
N2   N   0.278200038755504   0.555761305786836   0.625453049954469   1.0000000
N2   N   0.111469931643737   0.055739179986449   0.625244111802588   1.0000000
N2   N   0.611854437438685   0.556329822165812   0.624956819191802   1.0000000
N2   N   0.444905681949903   0.055771042195451   0.625265712376169   1.0000000
N2   N   0.944865980371713   0.555745556160724   0.625355236107719   1.0000000
N2   N   0.111527128274696   0.555749358391237   0.125106106405792   1.0000000
N2   N   0.778267513606543   0.055800423469930   0.624457356036508   1.0000000
N2   N   0.278200038755504   0.055772066301997   0.124546950045516   1.0000000
N2   N   0.444900490980920   0.555793074255441   0.124353816449969   1.0000000
N2   N   0.778233098034977   0.555783215684174   0.124192744955631   1.0000000
N2   N   0.611603869489958   0.055743979983399   0.125210071931763   1.0000000
N2   N   0.444900490980920   0.555793074255441   0.625646183550042   1.0000000
N2   N   0.944858684859693   0.055795797506560   0.125320610689647   1.0000000
N2   N   0.278205056836602   0.722432354419116   0.624627203643040   1.0000000
N2   N   0.111399327164827   0.222366330249088   0.625397128774546   1.0000000
N2   N   0.444900490980920   0.222440750058822   0.625646183550042   1.0000000
N2   N   0.611666898103401   0.722692464287388   0.626295547576497   1.0000000
N2   N   0.944865980371713   0.722453757544232   0.625355236107719   1.0000000
N2   N   0.778291306269876   0.222346509181497   0.625120443828703   1.0000000
N2   N   0.111523130294732   0.722428231814053   0.125362186967549   1.0000000
N2   N   0.444905681949903   0.722467973087850   0.124734287623861   1.0000000
N2   N   0.277975415727741   0.222307434819149   0.123602658425762   1.0000000
N2   N   0.778321217946427   0.722677085449503   0.123735822868610   1.0000000
N2   N   0.611666898103401   0.222307767149338   0.123704452423505   1.0000000
N2   N   0.944858684859693   0.222396220686472   0.125320610689647   1.0000000
N2   N   0.111469931643737   0.389064084990605   0.625244111802588   1.0000000
N2   N   0.278205056836602   0.889106035750821   0.624627203643040   1.0000000
N2   N   0.611603869489958   0.889193222839890   0.624789928068222   1.0000000
N2   N   0.444301886831896   0.388817610082618   0.623474683306333   1.0000000
N2   N   0.944893273270100   0.889172392348345   0.625081452516806   1.0000000
N2   N   0.111527128274696   0.889111103216735   0.125106106405792   1.0000000
N2   N   0.778321217946427   0.388977465830236   0.626264177131400   1.0000000
N2   N   0.444897999716844   0.889115666525105   0.125411285460490   1.0000000
N2   N   0.277975415727741   0.389001314241902   0.123602658425762   1.0000000
N2   N   0.278200038755504   0.555761305786836   0.124546950045516   1.0000000
N2   N   0.611854437438685   0.388857948606265   0.125043180808196   1.0000000
N2   N   0.778291306269876   0.889278130421695   0.124879556171270   1.0000000
N2   N   0.944893273270100   0.389054214255131   0.124918547483195   1.0000000
N2   N   0.111527128274696   0.555749358391237   0.624893893594176   1.0000000
N2   N   0.278200038755504   0.055772066301997   0.625453049954469   1.0000000
N2   N   0.778233098034977   0.555783215684174   0.625807255044351   1.0000000
N2   N   0.611603869489958   0.055743979983399   0.624789928068222   1.0000000
N2   N   0.944858684859693   0.055795797506563   0.624679389310332   1.0000000
N2   N   0.055885393375729   0.111323400323038   0.375000000000000   1.0000000
N2   N   0.554080872367397   0.615972477204061   0.375000000000000   1.0000000
N2   N   0.386455330010042   0.105300149468261   0.375000000000000   1.0000000
N2   N   0.886111441673821   0.609722387503599   0.375000000000000   1.0000000
N2   N   0.721940923640082   0.110465253300833   0.375000000000000   1.0000000
N2   N   0.055500253162246   0.777745325801161   0.875000000000000   1.0000000
N2   N   0.388782461244235   0.777744384368752   0.875000000000000   1.0000000
N2   N   0.222153067209842   0.277743200271586   0.875000000000000   1.0000000
N2   N   0.722113016384255   0.777699647894939   0.875000000000000   1.0000000
N2   N   0.555422980630208   0.277702036915591   0.875000000000000   1.0000000
N2   N   0.888792029332088   0.277742209970846   0.875000000000000   1.0000000
N2   N   0.219539125264998   0.776436229299151   0.375000000000000   1.0000000
N2   N   0.055885393375729   0.277895326385995   0.375000000000000   1.0000000
N2   N   0.388406440640657   0.270504402213777   0.375000000000000   1.0000000
N2   N   0.554283662044601   0.779759038458165   0.375000000000000   1.0000000
N2   N   0.886889198550070   0.776784073942671   0.375000000000000   1.0000000
N2   N   0.721627685704206   0.276248851544129   0.375000000000000   1.0000000
N2   N   0.055468861682325   0.944391330050610   0.875000000000000   1.0000000
N2   N   0.388782461244235   0.944371410208908   0.875000000000000   1.0000000
N2   N   0.222134701758478   0.444421197351034   0.875000000000000   1.0000000
N2   N   0.555454063553879   0.444393698443604   0.875000000000000   1.0000000
N2   N   0.722118526920926   0.944385189124960   0.875000000000000   1.0000000
N2   N   0.888815295710040   0.444425504435027   0.875000000000000   1.0000000
N2   N   0.053967688119908   0.444051826995720   0.375000000000000   1.0000000
N2   N   0.219613348792252   0.941930330752269   0.375000000000000   1.0000000
N2   N   0.554401127788866   0.943867230561144   0.375000000000000   1.0000000
N2   N   0.388406440640657   0.451235371760203   0.375000000000000   1.0000000
N2   N   0.888637917189566   0.944642993627664   0.375000000000000   1.0000000
N2   N   0.719369445389172   0.442688656670894   0.375000000000000   1.0000000
N2   N   0.222121705747081   0.611085436599285   0.875000000000000   1.0000000
N2   N   0.055471043874314   0.111065199440241   0.875000000000000   1.0000000
N2   N   0.555422980630208   0.611054277047928   0.875000000000000   1.0000000
N2   N   0.388771175834955   0.111009871617724   0.875000000000000   1.0000000
N2   N   0.888865539265385   0.611099436299348   0.875000000000000   1.0000000
N2   N   0.052947371791397   0.610075652645444   0.375000000000000   1.0000000
N2   N   0.722118526920926   0.111066671129282   0.875000000000000   1.0000000
N2   N   0.220925405285004   0.109107158896110   0.375000000000000   1.0000000
N2   N   0.386455330010042   0.614488513875086   0.375000000000000   1.0000000
N2   N   0.719369445389172   0.610014122051500   0.375000000000000   1.0000000
N2   N   0.554283662044601   0.107857956919730   0.375000000000000   1.0000000
N2   N   0.388771175834955   0.611094637550562   0.875000000000000   1.0000000
N2   N   0.889061840636201   0.111197586984798   0.375000000000000   1.0000000
N2   N   0.222136504247769   0.777734918790579   0.875000000000000   1.0000000
N2   N   0.055471043874314   0.277739177767422   0.875000000000000   1.0000000
N2   N   0.388807891136504   0.277703993717966   0.875000000000000   1.0000000
N2   N   0.555439982448415   0.777723911032235   0.875000000000000   1.0000000
N2   N   0.888815295710040   0.777723124608381   0.875000000000000   1.0000000
N2   N   0.722113016384255   0.277746701822678   0.875000000000000   1.0000000
N2   N   0.052947371791397   0.776205052479288   0.375000000000000   1.0000000
N2   N   0.386651343682414   0.778097235330283   0.375000000000000   1.0000000
N2   N   0.223897241780420   0.278615287556887   0.375000000000000   1.0000000
N2   N   0.721627685704206   0.778712167493411   0.375000000000000   1.0000000
N2   N   0.554080872367397   0.271441728496746   0.375000000000000   1.0000000
N2   N   0.888637917189566   0.277328256895283   0.375000000000000   1.0000000
N2   N   0.055468861682325   0.444410864965036   0.875000000000000   1.0000000
N2   N   0.222121705747081   0.944369602481076   0.875000000000000   1.0000000
N2   N   0.555452023715273   0.944392678524299   0.875000000000000   1.0000000
N2   N   0.388807891136504   0.444437230751868   0.875000000000000   1.0000000
N2   N   0.888792029332088   0.944383152694580   0.875000000000000   1.0000000
N2   N   0.053967688119908   0.943249194457527   0.375000000000000   1.0000000
N2   N   0.722157797292675   0.444437144026703   0.875000000000000   1.0000000
N2   N   0.386651343682414   0.941887441685512   0.375000000000000   1.0000000
N2   N   0.220925405285004   0.445151579722204   0.375000000000000   1.0000000
N2   N   0.219613348792253   0.611016351373365   0.375000000000000   1.0000000
N2   N   0.721940923640082   0.944809003672589   0.375000000000000   1.0000000
N2   N   0.886889198550070   0.443438457940690   0.375000000000000   1.0000000
N2   N   0.055500253162246   0.611088260694489   0.875000000000000   1.0000000
N2   N   0.222134701758478   0.111046837740774   0.875000000000000   1.0000000
N2   N   0.722157797292675   0.611053986599314   0.875000000000000   1.0000000
N2   N   0.555439982448415   0.111049404749549   0.875000000000000   1.0000000
N2   N   0.888797110109358   0.111065221721350   0.875000000000000   1.0000000
B2   B   0.110667458630532   0.054806407885514   0.375000000000000   1.0000000
B2   B   0.606557747307624   0.555166569567363   0.375000000000000   1.0000000
B2   B   0.443051512896398   0.052387755384682   0.375000000000000   1.0000000
B2   B   0.941544203346651   0.554422342977569   0.375000000000000   1.0000000
B2   B   0.777781695584563   0.055557514458956   0.375000000000000   1.0000000
B2   B   0.111014442960896   0.722173888147109   0.875000000000000   1.0000000
B2   B   0.444330773466376   0.722106309281853   0.875000000000000   1.0000000
B2   B   0.277854414348951   0.222277338936956   0.875000000000000   1.0000000
B2   B   0.777582228157347   0.721999264268247   0.875000000000000   1.0000000
B2   B   0.610940453319143   0.222276845247486   0.875000000000000   1.0000000
B2   B   0.944371562055755   0.222212846638573   0.875000000000000   1.0000000
B2   B   0.275588228871262   0.721722558710121   0.375000000000000   1.0000000
B2   B   0.113327878533924   0.223330605933623   0.375000000000000   1.0000000
B2   B   0.442460502961050   0.216223519544394   0.375000000000000   1.0000000
B2   B   0.609912505743740   0.724115697075582   0.375000000000000   1.0000000
B2   B   0.941544203346651   0.720455193702467   0.375000000000000   1.0000000
B2   B   0.777298054839714   0.221784514464612   0.375000000000000   1.0000000
B2   B   0.111035924561255   0.888839109879966   0.875000000000000   1.0000000
B2   B   0.444331886043506   0.888832609688448   0.875000000000000   1.0000000
B2   B   0.277854414348951   0.388910408745288   0.875000000000000   1.0000000
B2   B   0.610936078444100   0.388917316982225   0.875000000000000   1.0000000
B2   B   0.777625371036806   0.888716817601866   0.875000000000000   1.0000000
B2   B   0.944328440648100   0.388890686935558   0.875000000000000   1.0000000
B2   B   0.110667458630532   0.389194384078325   0.375000000000000   1.0000000
B2   B   0.275588228871262   0.887199003494537   0.375000000000000   1.0000000
B2   B   0.610523498872465   0.889461724104236   0.375000000000000   1.0000000
B2   B   0.942894538798925   0.887780998081608   0.375000000000000   1.0000000
B2   B   0.774966123108641   0.387973305857288   0.375000000000000   1.0000000
B2   B   0.277754092509982   0.555526458392077   0.875000000000000   1.0000000
B2   B   0.111094147140241   0.055538695521349   0.875000000000000   1.0000000
B2   B   0.610936078444100   0.555352094795206   0.875000000000000   1.0000000
B2   B   0.444330773466376   0.055557797517863   0.875000000000000   1.0000000
B2   B   0.944313047410471   0.555533818147295   0.875000000000000   1.0000000
B2   B   0.108821031708166   0.555008397261321   0.375000000000000   1.0000000
B2   B   0.777651407099191   0.055492370216252   0.875000000000000   1.0000000
B2   B   0.275978805528824   0.053141342952593   0.375000000000000   1.0000000
B2   B   0.442460502961050   0.559570316750003   0.375000000000000   1.0000000
B2   B   0.773673877124465   0.553503605228943   0.375000000000000   1.0000000
B2   B   0.610523498872465   0.054395108101530   0.375000000000000   1.0000000
B2   B   0.444398575312608   0.555455604596142   0.875000000000000   1.0000000
B2   B   0.944915268510118   0.055843232154617   0.375000000000000   1.0000000
B2   B   0.277699403591489   0.722170157961455   0.875000000000000   1.0000000
B2   B   0.111142659129252   0.222237996231281   0.875000000000000   1.0000000
B2   B   0.444398575312608   0.222276304049838   0.875000000000000   1.0000000
B2   B   0.610940453319143   0.721996941404998   0.875000000000000   1.0000000
B2   B   0.944313047410471   0.722112562596580   0.875000000000000   1.0000000
B2   B   0.777625371036806   0.222241886768208   0.875000000000000   1.0000000
B2   B   0.108440620002776   0.720886976668045   0.375000000000000   1.0000000
B2   B   0.443051512896398   0.723997090845043   0.375000000000000   1.0000000
B2   B   0.280315459185964   0.221982020010429   0.375000000000000   1.0000000
B2   B   0.774966123108641   0.720326150584642   0.375000000000000   1.0000000
B2   B   0.609912505743740   0.219130142001493   0.375000000000000   1.0000000
B2   B   0.944915268510118   0.222405369688861   0.375000000000000   1.0000000
B2   B   0.111094147140243   0.388888784952219   0.875000000000000   1.0000000
B2   B   0.277699403591489   0.888862578963407   0.875000000000000   1.0000000
B2   B   0.610968824051820   0.888768947125680   0.875000000000000   1.0000000
B2   B   0.444498597845572   0.388915965589426   0.875000000000000   1.0000000
B2   B   0.944328440648100   0.888771087045867   0.875000000000000   1.0000000
B2   B   0.108821031708166   0.887145967780194   0.375000000000000   1.0000000
B2   B   0.777582228157347   0.388916297222404   0.875000000000000   1.0000000
B2   B   0.443078438309983   0.888205885821630   0.375000000000000   1.0000000
B2   B   0.280315459185964   0.391666772508870   0.375000000000000   1.0000000
B2   B   0.275978805528824   0.556170795909537   0.375000000000000   1.0000000
B2   B   0.606557747307624   0.384724511073563   0.375000000000000   1.0000000
B2   B   0.777298054839714   0.888846873708406   0.375000000000000   1.0000000
B2   B   0.942894538798925   0.388446874050671   0.375000000000000   1.0000000
B2   B   0.111035924561255   0.555530148014642   0.875000000000000   1.0000000
B2   B   0.277754092509982   0.055560967451252   0.875000000000000   1.0000000
B2   B   0.777590837357383   0.555462085345351   0.875000000000000   1.0000000
B2   B   0.610968824051820   0.055533210259461   0.875000000000000   1.0000000
B2   B   0.944371562055755   0.055492048750605   0.875000000000000   1.0000000
B2   B   0.056012495093307   0.111373162835088   0.125249447316196   1.0000000
B2   B   0.556300839800698   0.611144349531282   0.125109399641706   1.0000000
B2   B   0.389556513241362   0.111783260082039   0.124953420773682   1.0000000
B2   B   0.888847589348020   0.611090461340705   0.124856391267187   1.0000000
B2   B   0.722684028317838   0.111350904901423   0.125560014177951   1.0000000
B2   B   0.055824106082721   0.777939825302433   0.624637346887915   1.0000000
B2   B   0.389422174568130   0.777931903710540   0.624486420856417   1.0000000
B2   B   0.222735531808376   0.278034432570828   0.625455101994174   1.0000000
B2   B   0.722612201146375   0.777948270307806   0.625428344324280   1.0000000
B2   B   0.556300839800698   0.278489823602704   0.624890600358348   1.0000000
B2   B   0.889306952568838   0.277959428390477   0.624632422228759   1.0000000
B2   B   0.222660663409936   0.777996998371683   0.125700135692225   1.0000000
B2   B   0.056012495093307   0.277972665591560   0.125249447316196   1.0000000
B2   B   0.389442088329551   0.278377799336537   0.125621379464421   1.0000000
B2   B   0.556096312070709   0.777913188904344   0.124929519972898   1.0000000
B2   B   0.889122379417503   0.777924337917682   0.124758184571397   1.0000000
B2   B   0.722612201146375   0.277997264171922   0.124571655675700   1.0000000
B2   B   0.055957697679127   0.944712225540291   0.624737604716016   1.0000000
B2   B   0.389422174568130   0.944823604190951   0.624486420856417   1.0000000
B2   B   0.222750298990940   0.444548370725485   0.625287434128073   1.0000000
B2   B   0.556146811522491   0.444740072427910   0.613767688453731   1.0000000
B2   B   0.722684028317838   0.944666456749778   0.624439985822019   1.0000000
B2   B   0.889122379417503   0.444531374833119   0.625241815428632   1.0000000
B2   B   0.055957697679127   0.444578805472130   0.125262395283966   1.0000000
B2   B   0.222727764677834   0.944839689525363   0.125333730487214   1.0000000
B2   B   0.556051050801001   0.944692192067158   0.125656912355561   1.0000000
B2   B   0.389442088329551   0.444397622326346   0.125621379464423   1.0000000
B2   B   0.889306952568838   0.944680857511715   0.125367577771262   1.0000000
B2   B   0.722139394816292   0.444334939694314   0.124934708053908   1.0000000
B2   B   0.222727764677834   0.611221408485840   0.624666269512758   1.0000000
B2   B   0.056012495093307   0.111373162835088   0.624750552683780   1.0000000
B2   B   0.556300839800698   0.611144349531282   0.624890600358348   1.0000000
B2   B   0.389556513241362   0.111783260082039   0.625046579226302   1.0000000
B2   B   0.888847589348020   0.611090461340705   0.625143608732784   1.0000000
B2   B   0.055824106082721   0.611217614113649   0.125362653112123   1.0000000
B2   B   0.722684028317838   0.111350904901423   0.624439985822019   1.0000000
B2   B   0.222750298990940   0.111535261598803   0.124712565871903   1.0000000
B2   B   0.389556513241362   0.611106586492652   0.124953420773682   1.0000000
B2   B   0.722139394816292   0.611137788455279   0.124934708053908   1.0000000
B2   B   0.556096312070709   0.111516456499650   0.124929519972898   1.0000000
B2   B   0.389556513241362   0.611106586492652   0.625046579226302   1.0000000
B2   B   0.889342997383321   0.111338165358328   0.125729162953655   1.0000000
B2   B   0.222660663409936   0.777996998371683   0.624299864307737   1.0000000
B2   B   0.056012495093307   0.277972665591560   0.624750552683780   1.0000000
B2   B   0.389442088329551   0.278377799336537   0.624378620535578   1.0000000
B2   B   0.556096312070709   0.777913188904344   0.625070480027091   1.0000000
B2   B   0.889122379417503   0.777924337917682   0.625241815428632   1.0000000
B2   B   0.722612201146375   0.277997264171922   0.625428344324280   1.0000000
B2   B   0.055824106082721   0.777939825302433   0.125362653112123   1.0000000
B2   B   0.389422174568130   0.777931903710540   0.125513579143550   1.0000000
B2   B   0.222735531808376   0.278034432570828   0.124544898005784   1.0000000
B2   B   0.722612201146375   0.777948270307806   0.124571655675700   1.0000000
B2   B   0.556300839800698   0.278489823602704   0.125109399641706   1.0000000
B2   B   0.889306952568838   0.277959428390477   0.125367577771262   1.0000000
B2   B   0.055957697679127   0.444578805472130   0.624737604716016   1.0000000
B2   B   0.222727764677834   0.944839689525363   0.624666269512758   1.0000000
B2   B   0.556051050801001   0.944692192067158   0.624343087644371   1.0000000
B2   B   0.389442088329551   0.444397622326346   0.624378620535578   1.0000000
B2   B   0.889306952568838   0.944680857511715   0.624632422228759   1.0000000
B2   B   0.055957697679127   0.944712225540291   0.125262395283966   1.0000000
B2   B   0.722139394816292   0.444334939694314   0.625065291946103   1.0000000
B2   B   0.389422174568130   0.944823604190951   0.125513579143550   1.0000000
B2   B   0.222750298990940   0.444548370725485   0.124712565871903   1.0000000
B2   B   0.222727764677834   0.611221408485840   0.125333730487214   1.0000000
B2   B   0.556146811522491   0.444740072427910   0.136232311546276   1.0000000
B2   B   0.722684028317838   0.944666456749778   0.125560014177951   1.0000000
B2   B   0.889122379417503   0.444531374833119   0.124758184571397   1.0000000
B2   B   0.055824106082721   0.611217614113649   0.624637346887915   1.0000000
B2   B   0.222750298990940   0.111535261598803   0.625287434128073   1.0000000
B2   B   0.722139394816292   0.611137788455279   0.625065291946103   1.0000000
B2   B   0.556096312070709   0.111516456499650   0.625070480027091   1.0000000
B2   B   0.889342997383321   0.111338165358328   0.624270837046377   1.0000000


