data_1
_audit_creation_method   'vasp2cif'
_cell_length_a    17.52789999999977
_cell_length_b    17.52789999999977
_cell_length_c    15.0
_cell_angle_alpha    90.0
_cell_angle_beta    90.0
_cell_angle_gamma    119.99999999999916

_symmetry_space_group_name_H-M    'P 1'
loop_
_atom_site_label
_atom_site_type_symbol
_atom_site_fract_x
_atom_site_fract_y
_atom_site_fract_z
_atom_site_occupancy
B2   B   0.904899447405408   0.952521139659476   0.110934842821700   1.0000000
B2   B   0.904769037812469   0.095298787443803   0.110997178013550   1.0000000
B2   B   0.904746000318159   0.238082307466359   0.111021299470341   1.0000000
B2   B   0.904649754310904   0.380845346579950   0.110953128875691   1.0000000
B2   B   0.905240702657809   0.523797427063029   0.110951052359962   1.0000000
B2   B   0.906644486829987   0.667164238692110   0.111012031087922   1.0000000
B2   B   0.906579367253953   0.810969410765620   0.110971454374798   1.0000000
B2   B   0.048459175524823   0.953155409353683   0.110932195838366   1.0000000
B2   B   0.047882836489938   0.095571647463015   0.110940472440071   1.0000000
B2   B   0.047801441147673   0.238206120729912   0.110935571678421   1.0000000
B2   B   0.047781424283166   0.380864631265991   0.110971421295224   1.0000000
B2   B   0.047883392069596   0.523717668588500   0.110981211720682   1.0000000
B2   B   0.048425793154855   0.666843272043091   0.111005289223890   1.0000000
B2   B   0.048524330835596   0.810039068247598   0.110966226328405   1.0000000
B2   B   0.190835320872225   0.952646766825491   0.110943897913628   1.0000000
B2   B   0.190802087819938   0.095605443844186   0.110989157797742   1.0000000
B2   B   0.190994584877404   0.238518528378927   0.110954286914704   1.0000000
B2   B   0.191008562448187   0.381017813039271   0.110954043368141   1.0000000
B2   B   0.190653804940355   0.523689663482080   0.111047385607709   1.0000000
B2   B   0.190563440814957   0.666709844584913   0.111071732645016   1.0000000
B2   B   0.190878680692978   0.809776106377176   0.110965218876884   1.0000000
B2   B   0.333513099343599   0.952549701760191   0.110968997467111   1.0000000
B2   B   0.333271989844024   0.095076779851059   0.111023635956360   1.0000000
B2   B   0.333301952234386   0.237641010562793   0.111094330155517   1.0000000
B2   B   0.334877418118508   0.381453427236156   0.111113330409897   1.0000000
B2   B   0.333622006982209   0.524188703380903   0.111107885308026   1.0000000
B2   B   0.332760302168089   0.666768150346608   0.111108290092878   1.0000000
B2   B   0.333368132283184   0.809726851850623   0.111059806309138   1.0000000
B2   B   0.476136870400979   0.952545986770502   0.110959473232069   1.0000000
B2   B   0.476123842153990   0.095678812006248   0.110933418186308   1.0000000
B2   B   0.475385853172533   0.238491504550219   0.111057547893404   1.0000000
B2   B   0.474349786951031   0.665361969016468   0.111063126657786   1.0000000
B2   B   0.475827315778210   0.809256901746686   0.111013718281027   1.0000000
B2   B   0.618802987887155   0.952636208311185   0.110944768987784   1.0000000
B2   B   0.618902922354981   0.095345145661423   0.110942564289490   1.0000000
B2   B   0.618670830169528   0.237863396135509   0.110946698338542   1.0000000
B2   B   0.617513894410620   0.380028050499695   0.111038724070034   1.0000000
B2   B   0.618020660292661   0.519906652235707   0.111429997003138   1.0000000
B2   B   0.615627646612117   0.667036406516420   0.111292700532047   1.0000000
B2   B   0.618265014528200   0.810070766460253   0.110907303111313   1.0000000
B2   B   0.761652596174036   0.952317410149620   0.110926946949710   1.0000000
B2   B   0.761785179063742   0.095247487699810   0.111019550763353   1.0000000
B2   B   0.761703337418931   0.238049982374789   0.111018972105863   1.0000000
B2   B   0.761233663270154   0.380690343590019   0.110939632584622   1.0000000
B2   B   0.762541964763844   0.523833286122783   0.111019255200929   1.0000000
B2   B   0.766706069638510   0.669103284376747   0.111182340259509   1.0000000
B2   B   0.761482445637031   0.809083905569578   0.110963353045890   1.0000000
C2   C   0.474285727912863   0.380482533052514   0.111477182567770   1.0000000
C2   C   0.475410088944911   0.522144817702433   0.111396736555192   1.0000000
C2   C   0.518353677817285   0.472394493445464   0.111516908877790   1.0000000
C2   C   0.667145450434146   0.619081724557167   0.111571697715528   1.0000000
N2   N   0.953480182510135   0.905870043876178   0.110920507545362   1.0000000
N2   N   0.952513331275738   0.047819012435666   0.110943866347849   1.0000000
N2   N   0.952508555775744   0.190569756710548   0.110979688697993   1.0000000
N2   N   0.952448976870138   0.333293749550158   0.110967807828879   1.0000000
N2   N   0.952644601149079   0.476060406460201   0.110918297732085   1.0000000
N2   N   0.953510596146891   0.619104555244717   0.110982052474018   1.0000000
N2   N   0.953557191474421   0.762554485174620   0.110981188332142   1.0000000
N2   N   0.095811924013775   0.905242181923580   0.110923507314627   1.0000000
N2   N   0.095747068449269   0.048257003137326   0.110932246171232   1.0000000
N2   N   0.095688690245539   0.190919913530024   0.110910566567437   1.0000000
N2   N   0.095696790617118   0.333405468779458   0.110919745304129   1.0000000
N2   N   0.095473352052808   0.476028984909044   0.110978099508910   1.0000000
N2   N   0.095583482848573   0.618959845742241   0.111005585025911   1.0000000
N2   N   0.095839470810386   0.762141543902647   0.110954041983746   1.0000000
N2   N   0.238375701448371   0.904978246035249   0.110919789385845   1.0000000
N2   N   0.238176517736928   0.047774615376531   0.110981641017192   1.0000000
N2   N   0.238305071457398   0.190843260055265   0.110986698818673   1.0000000
N2   N   0.239568767466600   0.334068731243212   0.110944800023868   1.0000000
N2   N   0.238502434170364   0.476042076237845   0.111010692327716   1.0000000
N2   N   0.237797783021387   0.618886036542603   0.111085532284166   1.0000000
N2   N   0.238229026414483   0.761980080521273   0.111022537120674   1.0000000
N2   N   0.380996778840158   0.904909818969885   0.110983646167303   1.0000000
N2   N   0.380986681308183   0.047683623601444   0.110958115062012   1.0000000
N2   N   0.380469902786083   0.189945857621363   0.111060054773153   1.0000000
N2   N   0.381540491486302   0.332510796940687   0.111191572593949   1.0000000
N2   N   0.382630162215162   0.477617142224205   0.111178992579442   1.0000000
N2   N   0.379726522826053   0.618965916976738   0.111066226880732   1.0000000
N2   N   0.380680876066946   0.761951808331394   0.111072316870970   1.0000000
N2   N   0.523580052230939   0.904682503060079   0.110953351660831   1.0000000
N2   N   0.523704677483091   0.047895749671721   0.110902828816256   1.0000000
N2   N   0.523509200246042   0.191116070101298   0.110932846816066   1.0000000
N2   N   0.521237893434739   0.333898445018486   0.111161527914979   1.0000000
N2   N   0.519931217858168   0.615992947570904   0.111200013294385   1.0000000
N2   N   0.523055492352133   0.761115198836052   0.110942763850761   1.0000000
N2   N   0.666340468376461   0.905132083249766   0.110882065274586   1.0000000
N2   N   0.666537466494264   0.047792371512109   0.110951135922346   1.0000000
N2   N   0.666470729438258   0.190429666437160   0.110958809343665   1.0000000
N2   N   0.665576730546396   0.332648339979660   0.110917314405041   1.0000000
N2   N   0.666846651265087   0.474446146432878   0.111076680311948   1.0000000
N2   N   0.665048163580667   0.762101123386987   0.110968247813684   1.0000000
N2   N   0.809229160204759   0.904473501768126   0.110904069156188   1.0000000
N2   N   0.809452036015692   0.047598859029495   0.110983080525343   1.0000000
N2   N   0.809473741909268   0.190496823825550   0.111032129595484   1.0000000
N2   N   0.809221635190102   0.333274199507382   0.110960132214278   1.0000000
N2   N   0.809835520703295   0.476099386590129   0.110924228179229   1.0000000
N2   N   0.811998998135728   0.619656384066284   0.111013138757468   1.0000000
N2   N   0.811876700022056   0.763752768761057   0.110977827846582   1.0000000


