data_1
_audit_creation_method   'vasp2cif'
_cell_length_a    14.93631414619966
_cell_length_b    14.936314146199727
_cell_length_c    13.341276283792837
_cell_angle_alpha    90.0
_cell_angle_beta    90.0
_cell_angle_gamma    119.99999999999984

_symmetry_space_group_name_H-M    'P 1'
loop_
_atom_site_label
_atom_site_type_symbol
_atom_site_fract_x
_atom_site_fract_y
_atom_site_fract_z
_atom_site_occupancy
O2   O   0.445599185787938   0.392147870014835   0.375000000000000   1.0000000
N2   N   0.111079413743180   0.055515534522039   0.125152697992398   1.0000000
N2   N   0.611061721960697   0.555489911244979   0.127220207353273   1.0000000
N2   N   0.444422111263058   0.055542802655331   0.125153996507839   1.0000000
N2   N   0.944425932097999   0.555533144498891   0.125106947525501   1.0000000
N2   N   0.777736137661796   0.055496694155978   0.125101359865301   1.0000000
N2   N   0.111099664918004   0.722208367980589   0.624886333075032   1.0000000
N2   N   0.444410476823732   0.722197350914807   0.624751889247951   1.0000000
N2   N   0.277718331177096   0.222180436352896   0.624778602804556   1.0000000
N2   N   0.777751155115195   0.722176023140940   0.624292905065764   1.0000000
N2   N   0.611092120868882   0.222183404719939   0.624812406837764   1.0000000
N2   N   0.944402033055300   0.222166361495132   0.624909433242280   1.0000000
N2   N   0.277754456195206   0.722209527346791   0.125119117686112   1.0000000
N2   N   0.111047673977877   0.222159030699145   0.125091773021843   1.0000000
N2   N   0.444413057923529   0.222200197408891   0.125251248172806   1.0000000
N2   N   0.611070548678173   0.722170755794274   0.125727662612094   1.0000000
N2   N   0.944437359649164   0.722204143196183   0.125204914181536   1.0000000
N2   N   0.777748119426971   0.222172117989552   0.125096935837140   1.0000000
N2   N   0.111104651211633   0.888874000832284   0.624856707901570   1.0000000
N2   N   0.444414072988722   0.888875849995048   0.624847835770407   1.0000000
N2   N   0.277729353757075   0.388829894220684   0.624746230091767   1.0000000
N2   N   0.611066445094730   0.388862606785660   0.624400625283723   1.0000000
N2   N   0.777743979622898   0.888836489253131   0.624802932155997   1.0000000
N2   N   0.944413571369706   0.388855078897262   0.624896775326418   1.0000000
N2   N   0.111076994926416   0.388851424415067   0.125146360711364   1.0000000
N2   N   0.277764963862942   0.888882241719431   0.125123464903778   1.0000000
N2   N   0.611066957052556   0.888851688877346   0.125173670738618   1.0000000
N2   N   0.444375383103708   0.388832508553597   0.125053255685399   1.0000000
N2   N   0.944431680680275   0.888854503054862   0.125160240136086   1.0000000
N2   N   0.777747258295434   0.388844225538511   0.125188450301441   1.0000000
N2   N   0.277749145346967   0.555528295419533   0.624857499340045   1.0000000
N2   N   0.111079413743180   0.055515534522039   0.624847302007602   1.0000000
N2   N   0.611061721960697   0.555489911244979   0.622779792646727   1.0000000
N2   N   0.444422111263058   0.055542802655331   0.624846003492162   1.0000000
N2   N   0.944425932097999   0.555533144498891   0.624893052474499   1.0000000
N2   N   0.111086297395043   0.555533859399976   0.125104639693155   1.0000000
N2   N   0.777736137661796   0.055496694155978   0.624898640134698   1.0000000
N2   N   0.277758043770883   0.055540584839613   0.125152192354853   1.0000000
N2   N   0.444424156344190   0.555526138873881   0.125587930348604   1.0000000
N2   N   0.777755269173672   0.555540793240383   0.125596082750674   1.0000000
N2   N   0.611076260052421   0.055521034256650   0.125119636771006   1.0000000
N2   N   0.444424156344190   0.555526138873881   0.624412069651396   1.0000000
N2   N   0.944403082433054   0.055493188026700   0.125097731913249   1.0000000
N2   N   0.277754456195206   0.722209527346791   0.624880882313888   1.0000000
N2   N   0.111047673977877   0.222159030699145   0.624908226978157   1.0000000
N2   N   0.444413057923529   0.222200197408891   0.624748751827193   1.0000000
N2   N   0.611070548678173   0.722170755794274   0.624272337387906   1.0000000
N2   N   0.944437359649164   0.722204143196183   0.624795085818466   1.0000000
N2   N   0.777748119426971   0.222172117989552   0.624903064162860   1.0000000
N2   N   0.111099664918004   0.722208367980589   0.125113666924967   1.0000000
N2   N   0.444410476823732   0.722197350914807   0.125248110752049   1.0000000
N2   N   0.277718331177096   0.222180436352896   0.125221397195444   1.0000000
N2   N   0.777751155115195   0.722176023140940   0.125707094934236   1.0000000
N2   N   0.611092120868882   0.222183404719939   0.125187593162236   1.0000000
N2   N   0.944402033055300   0.222166361495132   0.125090566757719   1.0000000
N2   N   0.111076994926416   0.388851424415067   0.624853639288636   1.0000000
N2   N   0.277764963862942   0.888882241719431   0.624876535096223   1.0000000
N2   N   0.611066957052556   0.888851688877346   0.624826329261382   1.0000000
N2   N   0.444375383103708   0.388832508553597   0.624946744314600   1.0000000
N2   N   0.944431680680275   0.888854503054862   0.624839759863914   1.0000000
N2   N   0.111104651211633   0.888874000832284   0.125143292098431   1.0000000
N2   N   0.777747258295434   0.388844225538511   0.624811549698559   1.0000000
N2   N   0.444414072988722   0.888875849995048   0.125152164229594   1.0000000
N2   N   0.277729353757075   0.388829894220684   0.125253769908232   1.0000000
N2   N   0.277749145346967   0.555528295419533   0.125142500659955   1.0000000
N2   N   0.611066445094730   0.388862606785660   0.125599374716277   1.0000000
N2   N   0.777743979622898   0.888836489253131   0.125197067844003   1.0000000
N2   N   0.944413571369706   0.388855078897262   0.125103224673582   1.0000000
N2   N   0.111086297395043   0.555533859399976   0.624895360306845   1.0000000
N2   N   0.277758043770883   0.055540584839613   0.624847807645147   1.0000000
N2   N   0.777755269173672   0.555540793240383   0.624403917249325   1.0000000
N2   N   0.611076260052421   0.055521034256650   0.624880363228995   1.0000000
N2   N   0.944403082433054   0.055493188026700   0.624902268086752   1.0000000
N2   N   0.054545913533777   0.110087689880039   0.375000000000000   1.0000000
N2   N   0.551774489535433   0.608361698283866   0.375000000000000   1.0000000
N2   N   0.390031190097128   0.115128835776146   0.375000000000000   1.0000000
N2   N   0.889784331951867   0.610843303037920   0.375000000000000   1.0000000
N2   N   0.721881651200453   0.109644662694431   0.375000000000000   1.0000000
N2   N   0.055549026395266   0.777773186837063   0.875000000000000   1.0000000
N2   N   0.388891948153067   0.777775344916882   0.875000000000000   1.0000000
N2   N   0.222219746298612   0.277780672718024   0.875000000000000   1.0000000
N2   N   0.722220812481487   0.777776520837993   0.875000000000000   1.0000000
N2   N   0.555560662849411   0.277782863536771   0.875000000000000   1.0000000
N2   N   0.888892832310693   0.277782142347921   0.875000000000000   1.0000000
N2   N   0.222533941169819   0.778320309986461   0.375000000000000   1.0000000
N2   N   0.054521195186346   0.276836063676473   0.375000000000000   1.0000000
N2   N   0.387424706970787   0.281659004950973   0.375000000000000   1.0000000
N2   N   0.554252000394187   0.776855765504386   0.375000000000000   1.0000000
N2   N   0.889470459802325   0.777676450808457   0.375000000000000   1.0000000
N2   N   0.723410855003911   0.275876379386655   0.375000000000000   1.0000000
N2   N   0.055549246928940   0.944445311083573   0.875000000000000   1.0000000
N2   N   0.388893208654048   0.944443588421542   0.875000000000000   1.0000000
N2   N   0.222219395408729   0.444444146250751   0.875000000000000   1.0000000
N2   N   0.555559446120199   0.444454321966899   0.875000000000000   1.0000000
N2   N   0.722225025070785   0.944446121042903   0.875000000000000   1.0000000
N2   N   0.888894480841201   0.444446379677433   0.875000000000000   1.0000000
N2   N   0.055741695682926   0.443949840701310   0.375000000000000   1.0000000
N2   N   0.223113558989341   0.945971742035377   0.375000000000000   1.0000000
N2   N   0.554971552999940   0.943997523461609   0.375000000000000   1.0000000
N2   N   0.385013572425532   0.440973476450327   0.375000000000000   1.0000000
N2   N   0.888215754651791   0.943324704525468   0.375000000000000   1.0000000
N2   N   0.732169624311935   0.446690842277694   0.375000000000000   1.0000000
N2   N   0.222219091485345   0.611106633251797   0.875000000000000   1.0000000
N2   N   0.055552784399154   0.111111356811464   0.875000000000000   1.0000000
N2   N   0.555556644082719   0.611107398497889   0.875000000000000   1.0000000
N2   N   0.388891738504366   0.111112491738543   0.875000000000000   1.0000000
N2   N   0.888886875530907   0.611106751929094   0.875000000000000   1.0000000
N2   N   0.056029908108020   0.611104453743534   0.375000000000000   1.0000000
N2   N   0.722224785464080   0.111112518896696   0.875000000000000   1.0000000
N2   N   0.223145108180349   0.112927423715460   0.375000000000000   1.0000000
N2   N   0.387459817262023   0.608918686493033   0.375000000000000   1.0000000
N2   N   0.723020233790434   0.609440883384631   0.375000000000000   1.0000000
N2   N   0.555602967207199   0.111122469716428   0.375000000000000   1.0000000
N2   N   0.388889134314975   0.611107035118504   0.875000000000000   1.0000000
N2   N   0.888178551896166   0.109805068991564   0.375000000000000   1.0000000
N2   N   0.222220747963431   0.777773777259478   0.875000000000000   1.0000000
N2   N   0.055554449219383   0.277779899789041   0.875000000000000   1.0000000
N2   N   0.388889315177438   0.277783530084381   0.875000000000000   1.0000000
N2   N   0.555558519355370   0.777775156905471   0.875000000000000   1.0000000
N2   N   0.888883047509813   0.777777031311904   0.875000000000000   1.0000000
N2   N   0.722227480647071   0.277780777489731   0.875000000000000   1.0000000
N2   N   0.056124164497194   0.778136070245789   0.375000000000000   1.0000000
N2   N   0.388464437836898   0.777336700958842   0.375000000000000   1.0000000
N2   N   0.219299662662832   0.276435955162625   0.375000000000000   1.0000000
N2   N   0.721258821647669   0.776387556283955   0.375000000000000   1.0000000
N2   N   0.553495338686677   0.271320387254144   0.375000000000000   1.0000000
N2   N   0.888984697718632   0.276687554954062   0.375000000000000   1.0000000
N2   N   0.055554650468690   0.444445043025969   0.875000000000000   1.0000000
N2   N   0.222218730494106   0.944442505296852   0.875000000000000   1.0000000
N2   N   0.555558930881200   0.944444731585965   0.875000000000000   1.0000000
N2   N   0.388888635808176   0.444449669671018   0.875000000000000   1.0000000
N2   N   0.888888974618555   0.944447277942489   0.875000000000000   1.0000000
N2   N   0.056092925583728   0.944937905952154   0.375000000000000   1.0000000
N2   N   0.722226398833717   0.444447550487882   0.875000000000000   1.0000000
N2   N   0.389113494900527   0.945785296894206   0.375000000000000   1.0000000
N2   N   0.221693180500635   0.443682797603595   0.375000000000000   1.0000000
N2   N   0.221945401817335   0.610840428306149   0.375000000000000   1.0000000
N2   N   0.721354328350277   0.943055108053482   0.375000000000000   1.0000000
N2   N   0.890142820277031   0.443919907842525   0.375000000000000   1.0000000
N2   N   0.055553828748570   0.611106323066835   0.875000000000000   1.0000000
N2   N   0.222218587310214   0.111111964491882   0.875000000000000   1.0000000
N2   N   0.722215118429634   0.611108038126535   0.875000000000000   1.0000000
N2   N   0.555558735102551   0.111110215473120   0.875000000000000   1.0000000
N2   N   0.888891607225126   0.111113263703454   0.875000000000000   1.0000000
B2   B   0.111568993766993   0.056252738963972   0.375000000000000   1.0000000
B2   B   0.622854359634666   0.579710458951578   0.375000000000000   1.0000000
B2   B   0.444636824810516   0.057616086552538   0.375000000000000   1.0000000
B2   B   0.945436114949596   0.554915522252050   0.375000000000000   1.0000000
B2   B   0.777327745055877   0.054409447365923   0.375000000000000   1.0000000
B2   B   0.111120303318858   0.722216908060548   0.875000000000000   1.0000000
B2   B   0.444420093540956   0.722227611614843   0.875000000000000   1.0000000
B2   B   0.277771631776286   0.222214372706991   0.875000000000000   1.0000000
B2   B   0.777799509737770   0.722236329801493   0.875000000000000   1.0000000
B2   B   0.611114050874974   0.222216691199201   0.875000000000000   1.0000000
B2   B   0.944446293204420   0.222235207023371   0.875000000000000   1.0000000
B2   B   0.277323096998877   0.722111118955509   0.375000000000000   1.0000000
B2   B   0.108787625059035   0.220691366096669   0.375000000000000   1.0000000
B2   B   0.445540780492522   0.228650125977115   0.375000000000000   1.0000000
B2   B   0.610552595147800   0.724344049082516   0.375000000000000   1.0000000
B2   B   0.945636128640292   0.722277098104485   0.375000000000000   1.0000000
B2   B   0.778338566526134   0.220340539281903   0.375000000000000   1.0000000
B2   B   0.111126746959607   0.888899486109346   0.875000000000000   1.0000000
B2   B   0.444441908051609   0.888904840921349   0.875000000000000   1.0000000
B2   B   0.277745995399616   0.388869447995225   0.875000000000000   1.0000000
B2   B   0.611112172543334   0.388851102721310   0.875000000000000   1.0000000
B2   B   0.777800522796285   0.888936229527055   0.875000000000000   1.0000000
B2   B   0.944446358375722   0.388880345702032   0.875000000000000   1.0000000
B2   B   0.110336956002118   0.387797938369251   0.375000000000000   1.0000000
B2   B   0.278116613647333   0.889805451920540   0.375000000000000   1.0000000
B2   B   0.610418445913483   0.888844508160210   0.375000000000000   1.0000000
B2   B   0.945327016151798   0.889596975090565   0.375000000000000   1.0000000
B2   B   0.778911848658238   0.385159665881410   0.375000000000000   1.0000000
B2   B   0.277741535083189   0.555539698581561   0.875000000000000   1.0000000
B2   B   0.111121906866002   0.055572054398674   0.875000000000000   1.0000000
B2   B   0.611096004757065   0.555519740927268   0.875000000000000   1.0000000
B2   B   0.444449616588302   0.055561559875533   0.875000000000000   1.0000000
B2   B   0.944460415151724   0.555536161874349   0.875000000000000   1.0000000
B2   B   0.111016214963061   0.555092954418159   0.375000000000000   1.0000000
B2   B   0.777792190001634   0.055591672507896   0.875000000000000   1.0000000
B2   B   0.278727917413297   0.057577641455740   0.375000000000000   1.0000000
B2   B   0.439710641513955   0.551014231662568   0.375000000000000   1.0000000
B2   B   0.779285989531770   0.554000575770325   0.375000000000000   1.0000000
B2   B   0.610899037412006   0.055184871325614   0.375000000000000   1.0000000
B2   B   0.444398696704375   0.555528091161593   0.875000000000000   1.0000000
B2   B   0.943738948727102   0.054629878822150   0.375000000000000   1.0000000
B2   B   0.277763935299455   0.722220296309959   0.875000000000000   1.0000000
B2   B   0.111102551916000   0.222226106388092   0.875000000000000   1.0000000
B2   B   0.444446684300568   0.222210768215702   0.875000000000000   1.0000000
B2   B   0.611105572345644   0.722239491933231   0.875000000000000   1.0000000
B2   B   0.944469184467770   0.722220229224039   0.875000000000000   1.0000000
B2   B   0.777784625817901   0.222230352864678   0.875000000000000   1.0000000
B2   B   0.111644740698163   0.722383011709257   0.375000000000000   1.0000000
B2   B   0.442734618972184   0.720882491911331   0.375000000000000   1.0000000
B2   B   0.276476558775886   0.223971766406036   0.375000000000000   1.0000000
B2   B   0.780444728568947   0.725087688178628   0.375000000000000   1.0000000
B2   B   0.613518910711447   0.222538645293771   0.375000000000000   1.0000000
B2   B   0.943808775190261   0.220940752375649   0.375000000000000   1.0000000
B2   B   0.111090126991170   0.388878619824657   0.875000000000000   1.0000000
B2   B   0.277783429960520   0.888895198615931   0.875000000000000   1.0000000
B2   B   0.611115843082024   0.888925526519097   0.875000000000000   1.0000000
B2   B   0.444417450602634   0.388854087235146   0.875000000000000   1.0000000
B2   B   0.944470934339384   0.888921099393704   0.875000000000000   1.0000000
B2   B   0.112006931370284   0.889732673867783   0.375000000000000   1.0000000
B2   B   0.777788087298113   0.388868632076825   0.875000000000000   1.0000000
B2   B   0.443887419135227   0.889154897515031   0.375000000000000   1.0000000
B2   B   0.274271997439822   0.385760974557377   0.375000000000000   1.0000000
B2   B   0.276173681586142   0.554483762172844   0.375000000000000   1.0000000
B2   B   0.777576488508268   0.888802721275384   0.375000000000000   1.0000000
B2   B   0.944964063668375   0.387694391661404   0.375000000000000   1.0000000
B2   B   0.111101238937191   0.555542936164776   0.875000000000000   1.0000000
B2   B   0.277786373914458   0.055559325067263   0.875000000000000   1.0000000
B2   B   0.777794712367700   0.555519762843066   0.875000000000000   1.0000000
B2   B   0.611116995221112   0.055576277828185   0.875000000000000   1.0000000
B2   B   0.944460500387815   0.055589101861800   0.875000000000000   1.0000000
B2   B   0.055536126004273   0.111071898195350   0.124861538989978   1.0000000
B2   B   0.555405174727303   0.611054597552375   0.125186824372666   1.0000000
B2   B   0.388877086149718   0.111095786067255   0.124974016969454   1.0000000
B2   B   0.888975654592014   0.611084918848505   0.124844547218566   1.0000000
B2   B   0.722176908380250   0.111092960169945   0.124862699050392   1.0000000
B2   B   0.055656085698957   0.777814190495430   0.625138681800601   1.0000000
B2   B   0.388804992581151   0.777826491174276   0.625122506838541   1.0000000
B2   B   0.222129790708492   0.277662048862710   0.625153256937467   1.0000000
B2   B   0.722264990895260   0.777868382381167   0.625112194509135   1.0000000
B2   B   0.555505272551763   0.277684185864400   0.624634205882130   1.0000000
B2   B   0.888847508180334   0.277727249143870   0.625133473873905   1.0000000
B2   B   0.222223845566317   0.777810547316004   0.124901443373069   1.0000000
B2   B   0.055492280381524   0.277717830914922   0.124870276294464   1.0000000
B2   B   0.388835867064589   0.277668496534624   0.124962563810219   1.0000000
B2   B   0.555453772794362   0.777851020907711   0.124846115718098   1.0000000
B2   B   0.889046101477080   0.777843669807072   0.124825786674150   1.0000000
B2   B   0.722157640466739   0.277696570236706   0.124891731957936   1.0000000
B2   B   0.055630722828594   0.944465843924852   0.625129525921960   1.0000000
B2   B   0.388859626058398   0.944475814953830   0.625070237686951   1.0000000
B2   B   0.222128389377821   0.444374124537954   0.625126086618917   1.0000000
B2   B   0.555345157841736   0.444057997362898   0.624464880020820   1.0000000
B2   B   0.722195736287017   0.944495214412199   0.625185910641413   1.0000000
B2   B   0.888850344072367   0.444370101034319   0.625152164999867   1.0000000
B2   B   0.055510713741802   0.444410803030676   0.124881919262951   1.0000000
B2   B   0.222255697709828   0.944460810113615   0.124918727251848   1.0000000
B2   B   0.555488062291047   0.944486218685450   0.124870043981451   1.0000000
B2   B   0.388776275976592   0.444237936215220   0.124938593689054   1.0000000
B2   B   0.888944466459977   0.944488759705097   0.124809389444961   1.0000000
B2   B   0.722112965111656   0.444242693615009   0.125346123661987   1.0000000
B2   B   0.222159336177879   0.611114377024611   0.625141166199154   1.0000000
B2   B   0.055536126004273   0.111071898195350   0.625138461010022   1.0000000
B2   B   0.555405174727303   0.611054597552375   0.624813175627335   1.0000000
B2   B   0.388877086149718   0.111095786067255   0.625025983030546   1.0000000
B2   B   0.888975654592014   0.611084918848505   0.625155452781434   1.0000000
B2   B   0.055573667321796   0.611107764322463   0.124855588770202   1.0000000
B2   B   0.722176908380250   0.111092960169945   0.625137300949608   1.0000000
B2   B   0.222204892366256   0.111058926873031   0.124925371757533   1.0000000
B2   B   0.388753363866068   0.611096496122588   0.124850196858510   1.0000000
B2   B   0.722314367604367   0.611044121154392   0.125203132141812   1.0000000
B2   B   0.555514357116124   0.111101376462682   0.124922313862306   1.0000000
B2   B   0.388753363866068   0.611096496122588   0.625149803141490   1.0000000
B2   B   0.888865666054657   0.111095525462434   0.124857016041781   1.0000000
B2   B   0.222223845566317   0.777810547316004   0.625098556626931   1.0000000
B2   B   0.055492280381524   0.277717830914922   0.625129723705535   1.0000000
B2   B   0.388835867064589   0.277668496534624   0.625037436189782   1.0000000
B2   B   0.555453772794362   0.777851020907711   0.625153884281901   1.0000000
B2   B   0.889046101477080   0.777843669807072   0.625174213325850   1.0000000
B2   B   0.722157640466739   0.277696570236706   0.625108268042064   1.0000000
B2   B   0.055656085698957   0.777814190495430   0.124861318199398   1.0000000
B2   B   0.388804992581151   0.777826491174276   0.124877493161459   1.0000000
B2   B   0.222129790708492   0.277662048862710   0.124846743062533   1.0000000
B2   B   0.722264990895260   0.777868382381167   0.124887805490865   1.0000000
B2   B   0.555505272551763   0.277684185864400   0.125365794117870   1.0000000
B2   B   0.888847508180334   0.277727249143870   0.124866526126095   1.0000000
B2   B   0.055510713741802   0.444410803030676   0.625118080737050   1.0000000
B2   B   0.222255697709828   0.944460810113615   0.625081272748153   1.0000000
B2   B   0.555488062291047   0.944486218685450   0.625129956018550   1.0000000
B2   B   0.388776275976592   0.444237936215220   0.625061406310946   1.0000000
B2   B   0.888944466459977   0.944488759705097   0.625190610555038   1.0000000
B2   B   0.055630722828594   0.944465843924852   0.124870474078040   1.0000000
B2   B   0.722112965111656   0.444242693615009   0.624653876338013   1.0000000
B2   B   0.388859626058398   0.944475814953830   0.124929762313050   1.0000000
B2   B   0.222128389377821   0.444374124537954   0.124873913381083   1.0000000
B2   B   0.222159336177879   0.611114377024611   0.124858833800846   1.0000000
B2   B   0.555345157841736   0.444057997362898   0.125535119979181   1.0000000
B2   B   0.722195736287017   0.944495214412199   0.124814089358586   1.0000000
B2   B   0.888850344072367   0.444370101034319   0.124847835000133   1.0000000
B2   B   0.055573667321796   0.611107764322463   0.625144411229797   1.0000000
B2   B   0.222204892366256   0.111058926873031   0.625074628242467   1.0000000
B2   B   0.722314367604367   0.611044121154392   0.624796867858188   1.0000000
B2   B   0.555514357116124   0.111101376462682   0.625077686137694   1.0000000
B2   B   0.888865666054657   0.111095525462434   0.625142983958219   1.0000000


