data_1
_audit_creation_method   'vasp2cif'
_cell_length_a    17.52789999999977
_cell_length_b    17.52789999999977
_cell_length_c    15.0
_cell_angle_alpha    90.0
_cell_angle_beta    90.0
_cell_angle_gamma    119.99999999999916

_symmetry_space_group_name_H-M    'P 1'
loop_
_atom_site_label
_atom_site_type_symbol
_atom_site_fract_x
_atom_site_fract_y
_atom_site_fract_z
_atom_site_occupancy
B2   B   0.905721493761925   0.952573346702112   0.111023328777429   1.0000000
B2   B   0.905231313491262   0.095317701904109   0.111057390627986   1.0000000
B2   B   0.904673958036367   0.238080049380244   0.111044436076627   1.0000000
B2   B   0.904223021114052   0.380944084918123   0.111004850006920   1.0000000
B2   B   0.903628790119903   0.523728952267099   0.111032672008185   1.0000000
B2   B   0.903612279314724   0.666616673166370   0.111115206475654   1.0000000
B2   B   0.906296593793030   0.810120257878827   0.111081049689324   1.0000000
B2   B   0.048415903262511   0.952390571259961   0.111018868728158   1.0000000
B2   B   0.047946925334244   0.094986479544310   0.111008843969429   1.0000000
B2   B   0.047571430015275   0.237690981104199   0.110990429995269   1.0000000
B2   B   0.047365127000716   0.380350362946795   0.111000960261482   1.0000000
B2   B   0.047279241920724   0.523217469163199   0.110996747934955   1.0000000
B2   B   0.047174034949479   0.666178269288326   0.111017706632777   1.0000000
B2   B   0.048120641719050   0.809272582939100   0.111040099344154   1.0000000
B2   B   0.190954876726204   0.952029950193181   0.111016946339422   1.0000000
B2   B   0.190710718308490   0.094815395858302   0.111019019331745   1.0000000
B2   B   0.190371282908697   0.237458333821879   0.110991154831467   1.0000000
B2   B   0.190375120619091   0.379688367294066   0.110990262751171   1.0000000
B2   B   0.190693355990185   0.522125129386423   0.111052799958697   1.0000000
B2   B   0.190496044533527   0.665881731062399   0.111057043969002   1.0000000
B2   B   0.190820756521559   0.809010170804733   0.110994905778898   1.0000000
B2   B   0.333748236371214   0.952034180954985   0.111023881075088   1.0000000
B2   B   0.333616012291174   0.094909815884294   0.111076224773380   1.0000000
B2   B   0.333076200078182   0.237357928806915   0.111056426217030   1.0000000
B2   B   0.334086144403799   0.380961064201829   0.111017006138131   1.0000000
B2   B   0.334769815885514   0.518260480607295   0.111058945150574   1.0000000
B2   B   0.332939820518517   0.665717624414262   0.111156828259176   1.0000000
B2   B   0.333724024589232   0.809094694907993   0.111090267079304   1.0000000
B2   B   0.476718091897433   0.952513570283545   0.111011819988154   1.0000000
B2   B   0.476502795327582   0.095389105184633   0.111001790794543   1.0000000
B2   B   0.476138976014236   0.238443522174705   0.111078888247963   1.0000000
B2   B   0.474516166881018   0.381427332227874   0.111021899147740   1.0000000
B2   B   0.469919961418162   0.673692352081356   0.111061057227780   1.0000000
B2   B   0.476898495254295   0.810516508364074   0.111093637894255   1.0000000
B2   B   0.620214104877559   0.952337663258453   0.110991440687132   1.0000000
B2   B   0.619380848433426   0.095488807389587   0.111001956712675   1.0000000
B2   B   0.618929791148142   0.238988324670862   0.111065880016775   1.0000000
B2   B   0.617877959524329   0.382760489366719   0.111042050754431   1.0000000
B2   B   0.613442351003347   0.525920865337385   0.110977637671400   1.0000000
B2   B   0.622590635465943   0.809505366031028   0.110947658039911   1.0000000
B2   B   0.763277772495494   0.952852021693785   0.110980881786404   1.0000000
B2   B   0.762341027653155   0.095476642725197   0.111043119254790   1.0000000
B2   B   0.761723872002015   0.238453253027281   0.111080177694966   1.0000000
B2   B   0.760990331316432   0.381540293254601   0.111071336861557   1.0000000
B2   B   0.759631383434231   0.524372494135643   0.111082245514261   1.0000000
B2   B   0.760968036756549   0.668572994890920   0.111046665219781   1.0000000
B2   B   0.764514662808189   0.810065810466269   0.110930984991793   1.0000000
N2   N   0.953141902679091   0.904915093546843   0.111023309144417   1.0000000
N2   N   0.952501680414788   0.047347952759622   0.111027885391867   1.0000000
N2   N   0.952114022720021   0.190209170553855   0.111022883103573   1.0000000
N2   N   0.951938854180127   0.333228971858750   0.110986983359461   1.0000000
N2   N   0.951848421220088   0.476266927309610   0.110974589926068   1.0000000
N2   N   0.951625814191736   0.619088225257053   0.111039422884576   1.0000000
N2   N   0.952796480867763   0.761880498552133   0.111082335512442   1.0000000
N2   N   0.095668832853242   0.904327797404273   0.111002626027930   1.0000000
N2   N   0.095361046260347   0.047107335931819   0.110985710745309   1.0000000
N2   N   0.094779682118284   0.189725453245477   0.110966391285546   1.0000000
N2   N   0.094676586550500   0.332671174614291   0.110970242172958   1.0000000
N2   N   0.095225898878174   0.475788124372094   0.110996115600282   1.0000000
N2   N   0.095266073068350   0.618682807989605   0.110997107773665   1.0000000
N2   N   0.095573540369583   0.761437025589370   0.110982237074257   1.0000000
N2   N   0.238560699167411   0.904081613803307   0.110984799924549   1.0000000
N2   N   0.238271744521439   0.046857178626053   0.111022285143887   1.0000000
N2   N   0.237556323172949   0.189267645110990   0.111008109774066   1.0000000
N2   N   0.237169135428126   0.331885229569405   0.110973384081601   1.0000000
N2   N   0.238232460592509   0.475120519336844   0.111019370336208   1.0000000
N2   N   0.238741501265929   0.618307894313316   0.111089208109778   1.0000000
N2   N   0.238745001946210   0.761233735516562   0.111027370829858   1.0000000
N2   N   0.381604998021555   0.904066495885017   0.111028388003555   1.0000000
N2   N   0.381289873985258   0.046951496365723   0.111009215043202   1.0000000
N2   N   0.380885514853261   0.189531955388529   0.111069640633123   1.0000000
N2   N   0.379564001165803   0.331059147010812   0.111017257157594   1.0000000
N2   N   0.380330578683757   0.473175602780313   0.111017754309531   1.0000000
N2   N   0.382269981416520   0.617020436042890   0.111097557702897   1.0000000
N2   N   0.382140727081626   0.761105735745455   0.111136153176795   1.0000000
N2   N   0.524779784190651   0.904471357937147   0.111009147156938   1.0000000
N2   N   0.524167993497752   0.047306821200482   0.110956644526835   1.0000000
N2   N   0.523872402800141   0.190406043374631   0.111036933508784   1.0000000
N2   N   0.523217222816757   0.333333627418176   0.111039209083716   1.0000000
N2   N   0.522212918816943   0.474081789850062   0.110943707248993   1.0000000
N2   N   0.526868251073820   0.762135400801097   0.111023130720362   1.0000000
N2   N   0.667777796154899   0.903920534554090   0.110949323242537   1.0000000
N2   N   0.666950059141861   0.047179741667707   0.110986430870090   1.0000000
N2   N   0.666546425567846   0.190653279539594   0.111048047293442   1.0000000
N2   N   0.666053223243421   0.334430583904618   0.111057429720796   1.0000000
N2   N   0.664869079189315   0.478926321522079   0.111025675637096   1.0000000
N2   N   0.618102112122034   0.669562441577318   0.110741079753510   1.0000000
N2   N   0.664550824105080   0.624932636090568   0.110908769825706   1.0000000
N2   N   0.668853624550464   0.760527637321867   0.110825522955220   1.0000000
N2   N   0.810099428370574   0.904752168318787   0.110960869346566   1.0000000
N2   N   0.809804330234408   0.047552428786620   0.111021853305070   1.0000000
N2   N   0.809314488430374   0.190460135251152   0.111057764981228   1.0000000
N2   N   0.808960435052988   0.333673269718101   0.111035532923521   1.0000000
N2   N   0.808283749552932   0.476918606352364   0.111054584055003   1.0000000
N2   N   0.807751630333452   0.619982701476059   0.111104808616820   1.0000000
N2   N   0.811177835213662   0.763067036616212   0.111013321365990   1.0000000


