data_1
_audit_creation_method   'vasp2cif'
_cell_length_a    14.93631414619966
_cell_length_b    14.936314146199727
_cell_length_c    13.341276283792837
_cell_angle_alpha    90.0
_cell_angle_beta    90.0
_cell_angle_gamma    119.99999999999984

_symmetry_space_group_name_H-M    'P 1'
loop_
_atom_site_label
_atom_site_type_symbol
_atom_site_fract_x
_atom_site_fract_y
_atom_site_fract_z
_atom_site_occupancy
As2   As   0.506475564118808   0.419904448726069   0.375000000000000   1.0000000
N2   N   0.111077274505949   0.055536600052337   0.124974582811695   1.0000000
N2   N   0.611141179331066   0.555643746875601   0.123400003463113   1.0000000
N2   N   0.444465446581662   0.055560196917366   0.124933263544172   1.0000000
N2   N   0.944405709076351   0.555532639875132   0.124929403405240   1.0000000
N2   N   0.777797307670963   0.055565320502150   0.124825727880194   1.0000000
N2   N   0.111090484508978   0.722211908921154   0.625121990879408   1.0000000
N2   N   0.444465446581662   0.722238582997631   0.625066736455828   1.0000000
N2   N   0.277693876256220   0.222176402511271   0.625459223967120   1.0000000
N2   N   0.777757655870842   0.722238162238561   0.625233590408250   1.0000000
N2   N   0.611124770406065   0.222193513887328   0.625332838475945   1.0000000
N2   N   0.944432739423062   0.222213115238593   0.625107024615752   1.0000000
N2   N   0.277784321867172   0.722223889252541   0.124911954430338   1.0000000
N2   N   0.111059296692376   0.222196315012852   0.124916296429801   1.0000000
N2   N   0.444449884517159   0.222214227678107   0.124437415499545   1.0000000
N2   N   0.611124770406065   0.722264589852067   0.124667161524056   1.0000000
N2   N   0.944405709076351   0.722206402534556   0.124929403405240   1.0000000
N2   N   0.777788301425633   0.222204004381704   0.124855963259294   1.0000000
N2   N   0.111092873832118   0.888882511740250   0.625092390065331   1.0000000
N2   N   0.444469261305447   0.888901297319386   0.625093480185252   1.0000000
N2   N   0.277693876256220   0.388850807078279   0.625459223967120   1.0000000
N2   N   0.611141179331066   0.388830765788794   0.626599996536886   1.0000000
N2   N   0.777788301425633   0.888917630377257   0.625144036740706   1.0000000
N2   N   0.944423924171637   0.388872941427466   0.625063654208760   1.0000000
N2   N   0.111077274505949   0.388874007786941   0.124974582811695   1.0000000
N2   N   0.277784321867172   0.888893765947961   0.124911954430338   1.0000000
N2   N   0.611138454452868   0.888916531157548   0.124868285421716   1.0000000
N2   N   0.444209653614827   0.388771493474078   0.122468402320627   1.0000000
N2   N   0.944423924171637   0.888884316077500   0.124936345791241   1.0000000
N2   N   0.777757655870842   0.388852826965608   0.124766409591751   1.0000000
N2   N   0.277775669537026   0.555550736053223   0.625065623224486   1.0000000
N2   N   0.111077274505949   0.055536600052337   0.625025417188306   1.0000000
N2   N   0.611141179331066   0.555643746875601   0.626599996536886   1.0000000
N2   N   0.444465446581662   0.055560196917366   0.625066736455828   1.0000000
N2   N   0.944405709076351   0.555532639875132   0.625070596594760   1.0000000
N2   N   0.111092873832118   0.555543695425196   0.124907609934670   1.0000000
N2   N   0.777797307670963   0.055565320502150   0.625174272119805   1.0000000
N2   N   0.277775669537026   0.055558266817140   0.124934376775514   1.0000000
N2   N   0.444449884517159   0.555568990172387   0.124437415499545   1.0000000
N2   N   0.777735686531096   0.555534509932214   0.124712957580015   1.0000000
N2   N   0.611138454452868   0.055555256628648   0.124868285421716   1.0000000
N2   N   0.444449884517158   0.555568990172387   0.625562584500455   1.0000000
N2   N   0.944432739423062   0.055552957517806   0.124892975384248   1.0000000
N2   N   0.277784321867172   0.722223889252541   0.625088045569662   1.0000000
N2   N   0.111059296692376   0.222196315012852   0.625083703570199   1.0000000
N2   N   0.444449884517159   0.222214227678108   0.625562584500455   1.0000000
N2   N   0.611124770406065   0.722264589852067   0.625332838475945   1.0000000
N2   N   0.944405709076351   0.722206402534556   0.625070596594760   1.0000000
N2   N   0.777788301425633   0.222204004381704   0.625144036740706   1.0000000
N2   N   0.111090484508978   0.722211908921154   0.124878009120592   1.0000000
N2   N   0.444465446581662   0.722238582997631   0.124933263544172   1.0000000
N2   N   0.277693876256220   0.222176402511271   0.124540776032880   1.0000000
N2   N   0.777757655870842   0.722238162238561   0.124766409591751   1.0000000
N2   N   0.611124770406065   0.222193513887328   0.124667161524056   1.0000000
N2   N   0.944432739423062   0.222213115238593   0.124892975384248   1.0000000
N2   N   0.111077274505949   0.388874007786941   0.625025417188306   1.0000000
N2   N   0.277784321867172   0.888893765947961   0.625088045569662   1.0000000
N2   N   0.611138454452868   0.888916531157548   0.625131714578282   1.0000000
N2   N   0.444209653614827   0.388771493474078   0.627531597679373   1.0000000
N2   N   0.944423924171637   0.888884316077500   0.625063654208760   1.0000000
N2   N   0.111092873832118   0.888882511740250   0.124907609934670   1.0000000
N2   N   0.777757655870842   0.388852826965608   0.625233590408250   1.0000000
N2   N   0.444469261305447   0.888901297319386   0.124906519814748   1.0000000
N2   N   0.277693876256220   0.388850807078279   0.124540776032880   1.0000000
N2   N   0.277775669537026   0.555550736053223   0.124934376775514   1.0000000
N2   N   0.611141179331066   0.388830765788794   0.123400003463113   1.0000000
N2   N   0.777788301425633   0.888917630377257   0.124855963259294   1.0000000
N2   N   0.944423924171637   0.388872941427466   0.124936345791241   1.0000000
N2   N   0.111092873832118   0.555543695425196   0.625092390065331   1.0000000
N2   N   0.277775669537026   0.055558266817140   0.625065623224486   1.0000000
N2   N   0.777735686531096   0.555534509932214   0.625287042419985   1.0000000
N2   N   0.611138454452868   0.055555256628648   0.625131714578282   1.0000000
N2   N   0.944432739423062   0.055552957517806   0.625107024615752   1.0000000
N2   N   0.057930658077610   0.112574201069146   0.375000000000000   1.0000000
N2   N   0.554131286014663   0.621365098942826   0.375000000000000   1.0000000
N2   N   0.386479490750524   0.104785848087751   0.375000000000000   1.0000000
N2   N   0.883322342422595   0.608327837877969   0.375000000000000   1.0000000
N2   N   0.722994004373378   0.110473606669993   0.375000000000000   1.0000000
N2   N   0.055574312355139   0.777785465998964   0.875000000000000   1.0000000
N2   N   0.388897027641284   0.777785702849730   0.875000000000000   1.0000000
N2   N   0.222239017539025   0.277786175436180   0.875000000000000   1.0000000
N2   N   0.722236240494463   0.777780121451771   0.875000000000000   1.0000000
N2   N   0.555563545894171   0.277779405886356   0.875000000000000   1.0000000
N2   N   0.888905427652983   0.277790358752258   0.875000000000000   1.0000000
N2   N   0.218722748980254   0.776028041156795   0.375000000000000   1.0000000
N2   N   0.057930658077610   0.278689790341801   0.375000000000000   1.0000000
N2   N   0.393042619940316   0.273726817746663   0.375000000000000   1.0000000
N2   N   0.554504599832406   0.781997402914702   0.375000000000000   1.0000000
N2   N   0.886557985597333   0.777113277467005   0.375000000000000   1.0000000
N2   N   0.722310901342736   0.275175642780663   0.375000000000000   1.0000000
N2   N   0.055568876598114   0.944446507935413   0.875000000000000   1.0000000
N2   N   0.388897027641284   0.944444658124887   0.875000000000000   1.0000000
N2   N   0.222233816679629   0.444457781777028   0.875000000000000   1.0000000
N2   N   0.555571950430504   0.444452641881916   0.875000000000000   1.0000000
N2   N   0.722232689617254   0.944447886725742   0.875000000000000   1.0000000
N2   N   0.888910250847720   0.444458999782300   0.875000000000000   1.0000000
N2   N   0.054899109720348   0.444098266371520   0.375000000000000   1.0000000
N2   N   0.219324844851691   0.941698179790007   0.375000000000000   1.0000000
N2   N   0.554581877419578   0.943957605376453   0.375000000000000   1.0000000
N2   N   0.393042619940316   0.452649135526988   0.375000000000000   1.0000000
N2   N   0.889957796724187   0.945813704282140   0.375000000000000   1.0000000
N2   N   0.717037885743163   0.440075261189640   0.375000000000000   1.0000000
N2   N   0.222230484970174   0.611121549768855   0.875000000000000   1.0000000
N2   N   0.055571859998042   0.111116100114191   0.875000000000000   1.0000000
N2   N   0.555563545894171   0.611117473341150   0.875000000000000   1.0000000
N2   N   0.388895565782160   0.111104706509434   0.875000000000000   1.0000000
N2   N   0.888918820708591   0.611126077020968   0.875000000000000   1.0000000
N2   N   0.051755047084869   0.609512187790247   0.375000000000000   1.0000000
N2   N   0.722232689617254   0.111118136224848   0.875000000000000   1.0000000
N2   N   0.223456037461282   0.111026674394201   0.375000000000000   1.0000000
N2   N   0.386479490750524   0.615026975996114   0.375000000000000   1.0000000
N2   N   0.717037885743163   0.610295957886857   0.375000000000000   1.0000000
N2   N   0.554504599832406   0.105840530251041   0.375000000000000   1.0000000
N2   N   0.388895565782160   0.611124192606068   0.875000000000000   1.0000000
N2   N   0.890739515099890   0.112036424216616   0.375000000000000   1.0000000
N2   N   0.222233683578031   0.777783508455684   0.875000000000000   1.0000000
N2   N   0.055571859998042   0.277789093217186   0.875000000000000   1.0000000
N2   N   0.388899750418452   0.277771758352527   0.875000000000000   1.0000000
N2   N   0.555563010557257   0.777782785566719   0.875000000000000   1.0000000
N2   N   0.888910250847720   0.777784584398758   0.875000000000000   1.0000000
N2   N   0.722236240494463   0.277789452376029   0.875000000000000   1.0000000
N2   N   0.051755047084869   0.775576192627960   0.375000000000000   1.0000000
N2   N   0.386295728041108   0.778160201429804   0.375000000000000   1.0000000
N2   N   0.226729077391482   0.280031205362408   0.375000000000000   1.0000000
N2   N   0.722310901342736   0.780468591895406   0.375000000000000   1.0000000
N2   N   0.554131286014663   0.266099520405173   0.375000000000000   1.0000000
N2   N   0.889957796724187   0.277477425775382   0.375000000000000   1.0000000
N2   N   0.055568876598114   0.444455701996028   0.875000000000000   1.0000000
N2   N   0.222230484970174   0.944442268534652   0.875000000000000   1.0000000
N2   N   0.555562231036557   0.944447782184942   0.875000000000000   1.0000000
N2   N   0.388899750418452   0.444461325399260   0.875000000000000   1.0000000
N2   N   0.888905427652983   0.944448402234061   0.875000000000000   1.0000000
N2   N   0.054899109720348   0.944134176682154   0.375000000000000   1.0000000
N2   N   0.722247961922027   0.444461416776208   0.875000000000000   1.0000000
N2   N   0.386295728041108   0.941468859944639   0.375000000000000   1.0000000
N2   N   0.223456037461282   0.445762696400416   0.375000000000000   1.0000000
N2   N   0.219324844851691   0.610959998395019   0.375000000000000   1.0000000
N2   N   0.722994004373378   0.945853731036719   0.375000000000000   1.0000000
N2   N   0.886557985597333   0.442778041463664   0.375000000000000   1.0000000
N2   N   0.055574312355139   0.611122179689511   0.875000000000000   1.0000000
N2   N   0.222233816679629   0.111109368235936   0.875000000000000   1.0000000
N2   N   0.722247961922027   0.611119878479153   0.875000000000000   1.0000000
N2   N   0.555563010557257   0.111113558323875   0.875000000000000   1.0000000
N2   N   0.888904910128269   0.111119121730806   0.875000000000000   1.0000000
B2   B   0.112618802179473   0.056120984771385   0.375000000000000   1.0000000
B2   B   0.604882093142527   0.563669143091970   0.375000000000000   1.0000000
B2   B   0.443035526640022   0.051616311636080   0.375000000000000   1.0000000
B2   B   0.940234013580177   0.553781403581639   0.375000000000000   1.0000000
B2   B   0.779454709293813   0.056394021313575   0.375000000000000   1.0000000
B2   B   0.111121604741821   0.722227469037576   0.875000000000000   1.0000000
B2   B   0.444449519589515   0.722189658354217   0.875000000000000   1.0000000
B2   B   0.277859656004001   0.222276637323383   0.875000000000000   1.0000000
B2   B   0.777752552378452   0.722166190919619   0.875000000000000   1.0000000
B2   B   0.611090563710177   0.222271330549554   0.875000000000000   1.0000000
B2   B   0.944480531981260   0.222248040872965   0.875000000000000   1.0000000
B2   B   0.275074414072635   0.721639047850955   0.375000000000000   1.0000000
B2   B   0.115594619720717   0.224463976527023   0.375000000000000   1.0000000
B2   B   0.442787624929141   0.215110717379187   0.375000000000000   1.0000000
B2   B   0.611139495048394   0.728931024859737   0.375000000000000   1.0000000
B2   B   0.940234013580177   0.719785943331874   0.375000000000000   1.0000000
B2   B   0.778852887431767   0.221419111109174   0.375000000000000   1.0000000
B2   B   0.111131748845756   0.888902445255979   0.875000000000000   1.0000000
B2   B   0.444446142895773   0.888889738114550   0.875000000000000   1.0000000
B2   B   0.277859656004001   0.388916352013947   0.875000000000000   1.0000000
B2   B   0.611077357939888   0.388922312666124   0.875000000000000   1.0000000
B2   B   0.777774564913176   0.888854753730742   0.875000000000000   1.0000000
B2   B   0.944454296322449   0.388910571148903   0.875000000000000   1.0000000
B2   B   0.112618802179473   0.389831150741416   0.375000000000000   1.0000000
B2   B   0.275074414072635   0.886768699555010   0.375000000000000   1.0000000
B2   B   0.611465890410721   0.891141939890157   0.375000000000000   1.0000000
B2   B   0.943748546493540   0.888664630141614   0.375000000000000   1.0000000
B2   B   0.774984595956379   0.386557832528830   0.375000000000000   1.0000000
B2   B   0.277815325889706   0.555550437593600   0.875000000000000   1.0000000
B2   B   0.111165246533065   0.055586390213503   0.875000000000000   1.0000000
B2   B   0.611077357939888   0.555488378607096   0.875000000000000   1.0000000
B2   B   0.444449519589515   0.055593194568634   0.875000000000000   1.0000000
B2   B   0.944440353638574   0.555563714692668   0.875000000000000   1.0000000
B2   B   0.108492165942744   0.554945404048231   0.375000000000000   1.0000000
B2   B   0.777785563536230   0.055559448434784   0.875000000000000   1.0000000
B2   B   0.276148185502847   0.052874631232865   0.375000000000000   1.0000000
B2   B   0.442787624929141   0.561010240883291   0.375000000000000   1.0000000
B2   B   0.770467746831228   0.551900540082281   0.375000000000000   1.0000000
B2   B   0.611465890410721   0.053657283853893   0.375000000000000   1.0000000
B2   B   0.444464403675844   0.555517837437317   0.875000000000000   1.0000000
B2   B   0.946804462049210   0.057056945493347   0.375000000000000   1.0000000
B2   B   0.277792933008091   0.722218462098821   0.875000000000000   1.0000000
B2   B   0.111187996287836   0.222260664810582   0.875000000000000   1.0000000
B2   B   0.444464403675844   0.222279899571861   0.875000000000000   1.0000000
B2   B   0.611090563710177   0.722152566493949   0.875000000000000   1.0000000
B2   B   0.944440353638574   0.722209972279239   0.875000000000000   1.0000000
B2   B   0.777774564913176   0.222253144515764   0.875000000000000   1.0000000
B2   B   0.107525880753343   0.720429607043336   0.375000000000000   1.0000000
B2   B   0.443035526640022   0.724752548337276   0.375000000000000   1.0000000
B2   B   0.283607909116158   0.224480229207649   0.375000000000000   1.0000000
B2   B   0.774984595956379   0.721760096760876   0.375000000000000   1.0000000
B2   B   0.611139495048394   0.215541803521987   0.375000000000000   1.0000000
B2   B   0.946804462049210   0.223080849889198   0.375000000000000   1.0000000
B2   B   0.111165246533065   0.388912189652890   0.875000000000000   1.0000000
B2   B   0.277792933008091   0.888907804242597   0.875000000000000   1.0000000
B2   B   0.611103954106144   0.888863442824193   0.875000000000000   1.0000000
B2   B   0.444496049237089   0.388914691285208   0.875000000000000   1.0000000
B2   B   0.944454296322449   0.888877058506872   0.875000000000000   1.0000000
B2   B   0.108492165942744   0.886880095227845   0.375000000000000   1.0000000
B2   B   0.777752552378452   0.388919694792161   0.875000000000000   1.0000000
B2   B   0.443012478775017   0.888172906054172   0.375000000000000   1.0000000
B2   B   0.283607909116158   0.392461013241838   0.375000000000000   1.0000000
B2   B   0.276148185502847   0.556606887603316   0.375000000000000   1.0000000
B2   B   0.604882093142527   0.374546283383882   0.375000000000000   1.0000000
B2   B   0.778852887431767   0.890767109655921   0.375000000000000   1.0000000
B2   B   0.943748546493540   0.388417249685255   0.375000000000000   1.0000000
B2   B   0.111131748845756   0.555562636923104   0.875000000000000   1.0000000
B2   B   0.277815325889706   0.055598221629442   0.875000000000000   1.0000000
B2   B   0.777745264440433   0.555539298886881   0.875000000000000   1.0000000
B2   B   0.611103954106144   0.055573844615278   0.875000000000000   1.0000000
B2   B   0.944480531981260   0.055565824441629   0.875000000000000   1.0000000
B2   B   0.055607313842787   0.111163795344541   0.125151550560372   1.0000000
B2   B   0.555535928240814   0.610936642817387   0.124698463063091   1.0000000
B2   B   0.388980667674803   0.111328129648852   0.125164713874808   1.0000000
B2   B   0.888673122824647   0.611003228078994   0.125114340259868   1.0000000
B2   B   0.722229206144435   0.111126879000633   0.125007068889691   1.0000000
B2   B   0.055489136280428   0.777765258548197   0.624943188913625   1.0000000
B2   B   0.388942902889410   0.777747781984841   0.624904023594464   1.0000000
B2   B   0.222331302894605   0.277832318113970   0.624899293590119   1.0000000
B2   B   0.722145303637141   0.777699420337494   0.625007829202077   1.0000000
B2   B   0.555535928240814   0.277932618756762   0.625301536936909   1.0000000
B2   B   0.888871826371067   0.277763648561689   0.624941609407041   1.0000000
B2   B   0.222235997831930   0.777784665582633   0.125034906199903   1.0000000
B2   B   0.055607313842787   0.277776851831582   0.125151550560372   1.0000000
B2   B   0.388951593318338   0.277961063820459   0.124699265906626   1.0000000
B2   B   0.555578715354852   0.777708919570598   0.125060441012011   1.0000000
B2   B   0.888763185327055   0.777714222465734   0.125083690950203   1.0000000
B2   B   0.722145303637141   0.277779216632983   0.124992170797923   1.0000000
B2   B   0.055555250304473   0.944489418031069   0.624870019059624   1.0000000
B2   B   0.388942902889410   0.944528454237905   0.624904023594464   1.0000000
B2   B   0.222309259438328   0.444377989963120   0.624792481880448   1.0000000
B2   B   0.555346014094681   0.444339673714005   0.624305056757659   1.0000000
B2   B   0.722229206144435   0.944435660477137   0.624992931110309   1.0000000
B2   B   0.888763185327055   0.444382296194658   0.624916309049797   1.0000000
B2   B   0.055555250304473   0.444399165606734   0.125129980940374   1.0000000
B2   B   0.222268826719979   0.944555308766794   0.125116638581489   1.0000000
B2   B   0.555592051147113   0.944462692240220   0.125044208101817   1.0000000
B2   B   0.388951593318338   0.444323862831215   0.124699265906626   1.0000000
B2   B   0.888871826371067   0.944441511142715   0.125058390592959   1.0000000
B2   B   0.721925481686540   0.444323343099031   0.124704386576311   1.0000000
B2   B   0.222268826719979   0.611046851286520   0.624883361418511   1.0000000
B2   B   0.055607313842787   0.111163795344541   0.624848449439626   1.0000000
B2   B   0.555535928240814   0.610936642817387   0.625301536936909   1.0000000
B2   B   0.388980667674803   0.111328129648852   0.624835286125193   1.0000000
B2   B   0.888673122824647   0.611003228078994   0.624885659740133   1.0000000
B2   B   0.055489136280428   0.611057211065566   0.125056811086376   1.0000000
B2   B   0.722229206144435   0.111126879000633   0.624992931110309   1.0000000
B2   B   0.222309259438328   0.111264602808543   0.125207518119551   1.0000000
B2   B   0.388980667674803   0.610985871359294   0.125164713874808   1.0000000
B2   B   0.721925481686540   0.610935471920846   0.124704386576311   1.0000000
B2   B   0.555578715354852   0.111203129117592   0.125060441012011   1.0000000
B2   B   0.388980667674803   0.610985871359294   0.624835286125193   1.0000000
B2   B   0.888910350435234   0.111121841884288   0.125021121914605   1.0000000
B2   B   0.222235997831930   0.777784665582633   0.624965093800096   1.0000000
B2   B   0.055607313842787   0.277776851831582   0.624848449439626   1.0000000
B2   B   0.388951593318338   0.277961063820459   0.625300734093375   1.0000000
B2   B   0.555578715354852   0.777708919570598   0.624939558987988   1.0000000
B2   B   0.888763185327055   0.777714222465734   0.624916309049797   1.0000000
B2   B   0.722145303637141   0.277779216632983   0.625007829202077   1.0000000
B2   B   0.055489136280428   0.777765258548197   0.125056811086376   1.0000000
B2   B   0.388942902889410   0.777747781984841   0.125095976405537   1.0000000
B2   B   0.222331302894605   0.277832318113970   0.125100706409882   1.0000000
B2   B   0.722145303637141   0.777699420337494   0.124992170797923   1.0000000
B2   B   0.555535928240814   0.277932618756762   0.124698463063091   1.0000000
B2   B   0.888871826371067   0.277763648561689   0.125058390592959   1.0000000
B2   B   0.055555250304473   0.444399165606734   0.624870019059624   1.0000000
B2   B   0.222268826719979   0.944555308766794   0.624883361418511   1.0000000
B2   B   0.555592051147113   0.944462692240220   0.624955791898184   1.0000000
B2   B   0.388951593318338   0.444323862831215   0.625300734093375   1.0000000
B2   B   0.888871826371067   0.944441511142715   0.624941609407041   1.0000000
B2   B   0.055555250304473   0.944489418031069   0.125129980940374   1.0000000
B2   B   0.721925481686540   0.444323343099031   0.625295613423687   1.0000000
B2   B   0.388942902889410   0.944528454237905   0.125095976405537   1.0000000
B2   B   0.222309259438328   0.444377989963120   0.125207518119551   1.0000000
B2   B   0.222268826719979   0.611046851286520   0.125116638581489   1.0000000
B2   B   0.555346014094681   0.444339673714005   0.125694943242343   1.0000000
B2   B   0.722229206144435   0.944435660477137   0.125007068889691   1.0000000
B2   B   0.888763185327055   0.444382296194658   0.125083690950203   1.0000000
B2   B   0.055489136280428   0.611057211065566   0.624943188913625   1.0000000
B2   B   0.222309259438328   0.111264602808543   0.624792481880448   1.0000000
B2   B   0.721925481686540   0.610935471920846   0.625295613423687   1.0000000
B2   B   0.555578715354852   0.111203129117592   0.624939558987988   1.0000000
B2   B   0.888910350435234   0.111121841884288   0.624978878085394   1.0000000


