data_1
_audit_creation_method   'vasp2cif'
_cell_length_a    17.52789999999977
_cell_length_b    17.52789999999977
_cell_length_c    15.0
_cell_angle_alpha    90.0
_cell_angle_beta    90.0
_cell_angle_gamma    119.99999999999916

_symmetry_space_group_name_H-M    'P 1'
loop_
_atom_site_label
_atom_site_type_symbol
_atom_site_fract_x
_atom_site_fract_y
_atom_site_fract_z
_atom_site_occupancy
B2   B   0.904962660782945   0.952579857476069   0.119357873010134   1.0000000
B2   B   0.905286716642829   0.095523756157705   0.121820374707035   1.0000000
B2   B   0.905285868728046   0.238285091643240   0.121932859122878   1.0000000
B2   B   0.904962654407086   0.380932572077863   0.119638349342455   1.0000000
B2   B   0.904558600580139   0.523630580445887   0.115820704402170   1.0000000
B2   B   0.904307553478492   0.666428897658939   0.113364470342012   1.0000000
B2   B   0.904541246713912   0.809476439970290   0.115426031137304   1.0000000
B2   B   0.047577518819647   0.952367009564721   0.120433056589067   1.0000000
B2   B   0.048210280092097   0.095635616111273   0.119742105520039   1.0000000
B2   B   0.048387467123711   0.238450747496511   0.119042877567240   1.0000000
B2   B   0.048204329295169   0.381106905287179   0.119927200767554   1.0000000
B2   B   0.047566680776112   0.523768412004103   0.120800126615546   1.0000000
B2   B   0.047196139600670   0.666485354459677   0.120645903029282   1.0000000
B2   B   0.047204350502014   0.809294442676876   0.120409787282153   1.0000000
B2   B   0.190197155882304   0.952135577633657   0.121439144405124   1.0000000
B2   B   0.190677913665874   0.095256201964572   0.116831603452132   1.0000000
B2   B   0.191475059946682   0.238694171564819   0.111107484989031   1.0000000
B2   B   0.191457652768398   0.381355682683970   0.111124255866047   1.0000000
B2   B   0.190636919812534   0.523979842612149   0.116967092955858   1.0000000
B2   B   0.190180380776441   0.666648670119405   0.121668939626445   1.0000000
B2   B   0.190085537995843   0.809348940267948   0.123295537088163   1.0000000
B2   B   0.333073424072345   0.952123537014100   0.122242623047609   1.0000000
B2   B   0.333119262403821   0.094675016968260   0.115309050372855   1.0000000
B2   B   0.333370081561154   0.237520568258910   0.102842877561094   1.0000000
B2   B   0.334570554248093   0.381625111820347   0.090864439815285   1.0000000
B2   B   0.333302736826892   0.524433662439523   0.102756104617084   1.0000000
B2   B   0.333077187996159   0.667013578576626   0.115300877037302   1.0000000
B2   B   0.333060480415007   0.809561172958938   0.122247066847610   1.0000000
B2   B   0.476115866358326   0.952357616393496   0.122164126692138   1.0000000
B2   B   0.476096818042762   0.094515572236359   0.118455254824582   1.0000000
B2   B   0.475931743131374   0.235938557025027   0.105517667197028   1.0000000
B2   B   0.473168292993832   0.369031382245494   0.061210888861572   1.0000000
B2   B   0.472979329330334   0.532737295420657   0.060662610532991   1.0000000
B2   B   0.475872224683952   0.668548397120066   0.105366532205512   1.0000000
B2   B   0.476058132952728   0.810161226483853   0.118393068632263   1.0000000
B2   B   0.619216637714124   0.952628334204437   0.120810781076006   1.0000000
B2   B   0.619224700885632   0.095164740495909   0.120812662807905   1.0000000
B2   B   0.619116285549721   0.237529810507756   0.113026832006156   1.0000000
B2   B   0.618593614962061   0.379169521637278   0.095485690573093   1.0000000
B2   B   0.625073083886849   0.526731889369082   0.074149992567182   1.0000000
B2   B   0.618507616017196   0.667935205260236   0.095231854535219   1.0000000
B2   B   0.619073816222879   0.810139296246476   0.112925283584217   1.0000000
B2   B   0.762188607258334   0.952671165796946   0.119270563025917   1.0000000
B2   B   0.762286003364345   0.095410345191083   0.122161970334232   1.0000000
B2   B   0.762202948758335   0.238058834956228   0.119389098138309   1.0000000
B2   B   0.761921283642811   0.380627486814929   0.111705701797313   1.0000000
B2   B   0.761890828351611   0.523447748266557   0.103624021261957   1.0000000
B2   B   0.761843777348589   0.666951036391700   0.103425756694351   1.0000000
B2   B   0.761876535828354   0.809830489604410   0.111447827619372   1.0000000
Sn2   Sn   0.519598396336187   0.474067811283070   0.951613520124000   1.0000000
N2   N   0.952253411349822   0.904662436330103   0.118997767818795   1.0000000
N2   N   0.952850454886885   0.047871230645079   0.121188072534584   1.0000000
N2   N   0.953066440159594   0.190794047175416   0.121884514913688   1.0000000
N2   N   0.952844759006228   0.333509211547081   0.121400417224357   1.0000000
N2   N   0.952251726547690   0.476144365772071   0.119417103923322   1.0000000
N2   N   0.951861810833528   0.618825492231591   0.116815707330737   1.0000000
N2   N   0.951863932386086   0.761600613763200   0.116531948933168   1.0000000
N2   N   0.094914082884239   0.904524194649829   0.121507951630394   1.0000000
N2   N   0.095457228315669   0.047698381036388   0.119851207725786   1.0000000
N2   N   0.096206773293932   0.191034188410963   0.117420189817181   1.0000000
N2   N   0.096191976246041   0.333701173188789   0.117491934499152   1.0000000
N2   N   0.095430579475210   0.476299300893615   0.120111802641662   1.0000000
N2   N   0.094896016316649   0.618955817196563   0.121865884956915   1.0000000
N2   N   0.094761856334311   0.761674156332187   0.122127474302074   1.0000000
N2   N   0.237791656775621   0.904546770057962   0.123052064358613   1.0000000
N2   N   0.237945998688761   0.047327225942063   0.118367237322641   1.0000000
N2   N   0.238485512625348   0.190489383460904   0.111116027896322   1.0000000
N2   N   0.239762036203647   0.334176841830818   0.105105920844633   1.0000000
N2   N   0.238430781643577   0.476560370868784   0.111130157040861   1.0000000
N2   N   0.237909759228308   0.619187491142441   0.118509405463095   1.0000000
N2   N   0.237777217852450   0.761843301354553   0.123145570218207   1.0000000
N2   N   0.380829421329951   0.904721524786657   0.123040217295995   1.0000000
N2   N   0.380835956941334   0.047230699621875   0.119298075475085   1.0000000
N2   N   0.380718593808224   0.189464028858407   0.107279672924728   1.0000000
N2   N   0.380979800582326   0.331877558712365   0.086582083493818   1.0000000
N2   N   0.380880041736528   0.477718777386537   0.086420138819248   1.0000000
N2   N   0.380655281820466   0.619836628479650   0.107163514373664   1.0000000
N2   N   0.380802505428455   0.762197140046728   0.119256449314379   1.0000000
N2   N   0.523941389020902   0.905125907387690   0.121237085137040   1.0000000
N2   N   0.523953110260494   0.047410931328760   0.121244982530547   1.0000000
N2   N   0.523925799400459   0.189419881031251   0.113749299911159   1.0000000
N2   N   0.523556344749719   0.329801233098593   0.091159456253658   1.0000000
N2   N   0.523472216909127   0.622323967793233   0.090838194613730   1.0000000
N2   N   0.523881061131526   0.763074206685976   0.113653622862718   1.0000000
N2   N   0.666926017104860   0.905100549123405   0.118317529761282   1.0000000
N2   N   0.667002419591872   0.047782242275074   0.122052779894977   1.0000000
N2   N   0.666944073932937   0.190393832601454   0.118358498287142   1.0000000
N2   N   0.666641855266079   0.332895408720665   0.107315721372657   1.0000000
N2   N   0.666390114314678   0.475416504505475   0.092113218664457   1.0000000
N2   N   0.666311261670660   0.619440301521286   0.091894863429154   1.0000000
N2   N   0.666589404051800   0.762274148530954   0.107132504549506   1.0000000
N2   N   0.809627671767153   0.904860958089785   0.117281030274976   1.0000000
N2   N   0.809964273034174   0.047847551675094   0.121931068401713   1.0000000
N2   N   0.809964781672617   0.190646104107032   0.122004242187946   1.0000000
N2   N   0.809641595937339   0.333317942251150   0.117511223122936   1.0000000
N2   N   0.809232481415823   0.475934384049636   0.110507399771236   1.0000000
N2   N   0.808891731553045   0.618721657339596   0.106194427775520   1.0000000
N2   N   0.809197691270920   0.761832621589956   0.110173815893532   1.0000000


