data_1
_audit_creation_method   'vasp2cif'
_cell_length_a    14.93631414619966
_cell_length_b    14.936314146199727
_cell_length_c    13.341276283792837
_cell_angle_alpha    90.0
_cell_angle_beta    90.0
_cell_angle_gamma    119.99999999999984

_symmetry_space_group_name_H-M    'P 1'
loop_
_atom_site_label
_atom_site_type_symbol
_atom_site_fract_x
_atom_site_fract_y
_atom_site_fract_z
_atom_site_occupancy
C2   C   0.609384765077083   0.387099406884607   0.375000000000000   1.0000000
C2   C   0.444381308474196   0.387099406884607   0.375000000000000   1.0000000
C2   C   0.553206075700597   0.439745484734524   0.375000000000000   1.0000000
N2   N   0.111120280092585   0.055551714690351   0.125161204268830   1.0000000
N2   N   0.611109586823908   0.555552506981144   0.124907028368037   1.0000000
N2   N   0.444436338726058   0.055550489050663   0.125205703043819   1.0000000
N2   N   0.944447306318147   0.555554919982117   0.125168222131609   1.0000000
N2   N   0.777772517720249   0.055555795960841   0.125123409107180   1.0000000
N2   N   0.111110096335927   0.722214377150363   0.624885842632596   1.0000000
N2   N   0.444432121595768   0.722208661178933   0.624853577008692   1.0000000
N2   N   0.277794505334450   0.222233263328493   0.624650465549545   1.0000000
N2   N   0.777772184836816   0.722206360848723   0.624848427256262   1.0000000
N2   N   0.611105424660715   0.222233263328493   0.624650465549545   1.0000000
N2   N   0.944449620270213   0.222232573873763   0.624876607186687   1.0000000
N2   N   0.277770947481107   0.722214377150363   0.125114157367404   1.0000000
N2   N   0.111119582911335   0.222228621702705   0.125172386219139   1.0000000
N2   N   0.444452519699105   0.222238372731545   0.125439133485684   1.0000000
N2   N   0.611100842678578   0.722206360848723   0.125151572743738   1.0000000
N2   N   0.944443206249829   0.722208661178933   0.125146422991308   1.0000000
N2   N   0.777775705458042   0.222228621702705   0.125172386219139   1.0000000
N2   N   0.111111663396410   0.888878240127756   0.624881956557903   1.0000000
N2   N   0.444433243398018   0.888878240127756   0.624881956557903   1.0000000
N2   N   0.277787950120892   0.388894835963476   0.624687133294962   1.0000000
N2   N   0.611117873144787   0.388882415573407   0.625123196818643   1.0000000
N2   N   0.777774662333519   0.888882658000367   0.624883207989361   1.0000000
N2   N   0.944450944948759   0.388902355806058   0.624844418237794   1.0000000
N2   N   0.111118077523971   0.388902355806058   0.125155581762207   1.0000000
N2   N   0.277772254369881   0.888877842073090   0.125120197757480   1.0000000
N2   N   0.611098961593335   0.888878938556573   0.125124386745805   1.0000000
N2   N   0.444431209095291   0.388882415573407   0.124876803181357   1.0000000
N2   N   0.944446643629908   0.888878938556573   0.125124386745805   1.0000000
N2   N   0.777773552509255   0.388894835963476   0.125312866705039   1.0000000
N2   N   0.277774280330633   0.555554919982117   0.624831777868391   1.0000000
N2   N   0.111120280092585   0.055551714690351   0.624838795731170   1.0000000
N2   N   0.611109586823908   0.555552506981144   0.625092971631963   1.0000000
N2   N   0.444436338726058   0.055550489050663   0.624794296956180   1.0000000
N2   N   0.944447306318147   0.555554919982117   0.624831777868391   1.0000000
N2   N   0.111112847966781   0.555559029266889   0.125114489436983   1.0000000
N2   N   0.777772517720249   0.055555795960841   0.624876590892820   1.0000000
N2   N   0.277780816991269   0.055550489050663   0.125205703043819   1.0000000
N2   N   0.444436284289005   0.555538091405970   0.125256687254568   1.0000000
N2   N   0.777768473783630   0.555538091405970   0.125256687254568   1.0000000
N2   N   0.611098101264437   0.055551714690351   0.125161204268830   1.0000000
N2   N   0.444436284289005   0.555538091405970   0.624743312745432   1.0000000
N2   N   0.944449944907257   0.055555795960841   0.125123409107180   1.0000000
N2   N   0.277770947481107   0.722214377150363   0.624885842632596   1.0000000
N2   N   0.111119582911335   0.222228621702705   0.624827613780862   1.0000000
N2   N   0.444452519699105   0.222238372731545   0.624560866514316   1.0000000
N2   N   0.611100842678578   0.722206360848723   0.624848427256262   1.0000000
N2   N   0.944443206249829   0.722208661178933   0.624853577008692   1.0000000
N2   N   0.777775705458042   0.222228621702705   0.624827613780862   1.0000000
N2   N   0.111110096335927   0.722214377150363   0.125114157367404   1.0000000
N2   N   0.444432121595768   0.722208661178933   0.125146422991308   1.0000000
N2   N   0.277794505334450   0.222233263328493   0.125349534450456   1.0000000
N2   N   0.777772184836816   0.722206360848723   0.125151572743738   1.0000000
N2   N   0.611105424660715   0.222233263328493   0.125349534450456   1.0000000
N2   N   0.944449620270213   0.222232573873763   0.125123392813313   1.0000000
N2   N   0.111118077523971   0.388902355806058   0.624844418237794   1.0000000
N2   N   0.277772254369881   0.888877842073090   0.624879802242520   1.0000000
N2   N   0.611098961593335   0.888878938556573   0.624875613254195   1.0000000
N2   N   0.444431209095291   0.388882415573407   0.625123196818643   1.0000000
N2   N   0.944446643629908   0.888878938556573   0.624875613254195   1.0000000
N2   N   0.111111663396410   0.888878240127756   0.125118043442098   1.0000000
N2   N   0.777773552509255   0.388894835963476   0.624687133294962   1.0000000
N2   N   0.444433243398018   0.888878240127756   0.125118043442098   1.0000000
N2   N   0.277787950120892   0.388894835963476   0.125312866705039   1.0000000
N2   N   0.277774280330633   0.555554919982117   0.125168222131609   1.0000000
N2   N   0.611117873144787   0.388882415573407   0.124876803181357   1.0000000
N2   N   0.777774662333519   0.888882658000367   0.125116792010639   1.0000000
N2   N   0.944450944948759   0.388902355806058   0.125155581762207   1.0000000
N2   N   0.111112847966781   0.555559029266889   0.624885510563017   1.0000000
N2   N   0.277780816991269   0.055550489050663   0.624794296956180   1.0000000
N2   N   0.777768473783630   0.555538091405970   0.624743312745432   1.0000000
N2   N   0.611098101264437   0.055551714690351   0.624838795731170   1.0000000
N2   N   0.944449944907257   0.055555795960841   0.624876590892820   1.0000000
N2   N   0.055734964972137   0.111223406677478   0.375000000000000   1.0000000
N2   N   0.556237466034769   0.611870635218929   0.375000000000000   1.0000000
N2   N   0.390271531621351   0.113876396576045   0.375000000000000   1.0000000
N2   N   0.886658889582409   0.609462031978986   0.375000000000000   1.0000000
N2   N   0.722155108372005   0.111223406677478   0.375000000000000   1.0000000
N2   N   0.055554770299738   0.777780653537461   0.875000000000000   1.0000000
N2   N   0.388892549904388   0.777780653537461   0.875000000000000   1.0000000
N2   N   0.222222476652810   0.277775632409730   0.875000000000000   1.0000000
N2   N   0.722222702015428   0.777778737364193   0.875000000000000   1.0000000
N2   N   0.555554048723544   0.277776551967651   0.875000000000000   1.0000000
N2   N   0.888887711555693   0.277775866889944   0.875000000000000   1.0000000
N2   N   0.222215423403353   0.777764180140042   0.375000000000000   1.0000000
N2   N   0.055664419999908   0.277843462122194   0.375000000000000   1.0000000
N2   N   0.390151040372872   0.281462855504900   0.375000000000000   1.0000000
N2   N   0.555597595422168   0.778051099916179   0.375000000000000   1.0000000
N2   N   0.889120171160675   0.778051099916179   0.375000000000000   1.0000000
N2   N   0.722145962789010   0.277544875991630   0.375000000000000   1.0000000
N2   N   0.055554970428990   0.944447960359354   0.875000000000000   1.0000000
N2   N   0.388893053917886   0.944448560897113   0.875000000000000   1.0000000
N2   N   0.222222335762946   0.444440986022109   0.875000000000000   1.0000000
N2   N   0.555555343220531   0.444444019774391   0.875000000000000   1.0000000
N2   N   0.722223694279927   0.944446620480853   0.875000000000000   1.0000000
N2   N   0.888885316925827   0.444440986022109   0.875000000000000   1.0000000
N2   N   0.055438537154329   0.444210407641987   0.375000000000000   1.0000000
N2   N   0.222769610537821   0.945256019771248   0.375000000000000   1.0000000
N2   N   0.555529758133437   0.944930746949223   0.375000000000000   1.0000000
N2   N   0.391711340460991   0.440840189496810   0.375000000000000   1.0000000
N2   N   0.889109917626819   0.944680566806470   0.375000000000000   1.0000000
N2   N   0.715795515702484   0.440840189496810   0.375000000000000   1.0000000
N2   N   0.222221368935706   0.611107313532265   0.875000000000000   1.0000000
N2   N   0.055554501470756   0.111109590330609   0.875000000000000   1.0000000
N2   N   0.555555897639784   0.611109239874080   0.875000000000000   1.0000000
N2   N   0.388889358892263   0.111112051117868   0.875000000000000   1.0000000
N2   N   0.888885141640067   0.611109496552740   0.875000000000000   1.0000000
N2   N   0.054870616922478   0.610627689247766   0.375000000000000   1.0000000
N2   N   0.722221755526518   0.111109590330609   0.875000000000000   1.0000000
N2   N   0.223281077576856   0.112297932757961   0.375000000000000   1.0000000
N2   N   0.389469809063234   0.609462031978986   0.375000000000000   1.0000000
N2   N   0.722299835850825   0.611870635218929   0.375000000000000   1.0000000
N2   N   0.555683521847769   0.112297932757961   0.375000000000000   1.0000000
N2   N   0.388891021579330   0.611109496552740   0.875000000000000   1.0000000
N2   N   0.888967009513785   0.111267352360912   0.375000000000000   1.0000000
N2   N   0.222223258470372   0.777779850274079   0.875000000000000   1.0000000
N2   N   0.055554822000915   0.277775866889944   0.875000000000000   1.0000000
N2   N   0.388889169910771   0.277776551967651   0.875000000000000   1.0000000
N2   N   0.555558821673722   0.777780187861202   0.875000000000000   1.0000000
N2   N   0.888888032854146   0.777780187861202   0.875000000000000   1.0000000
N2   N   0.722219822423584   0.277775632409730   0.875000000000000   1.0000000
N2   N   0.055108049940580   0.777444568254095   0.375000000000000   1.0000000
N2   N   0.389003184980179   0.777444568254095   0.375000000000000   1.0000000
N2   N   0.222065579869284   0.277544875991630   0.375000000000000   1.0000000
N2   N   0.722476469967662   0.778286273268660   0.375000000000000   1.0000000
N2   N   0.557978481798692   0.281462855504900   0.375000000000000   1.0000000
N2   N   0.888845708788950   0.277843462122194   0.375000000000000   1.0000000
N2   N   0.055553918365956   0.444441170065241   0.875000000000000   1.0000000
N2   N   0.222222173645891   0.944448560897113   0.875000000000000   1.0000000
N2   N   0.555559656597035   0.944447960359354   0.875000000000000   1.0000000
N2   N   0.388890535004721   0.444444019608708   0.875000000000000   1.0000000
N2   N   0.888889592867590   0.944446620480853   0.875000000000000   1.0000000
N2   N   0.056067655482457   0.944930746949223   0.375000000000000   1.0000000
N2   N   0.722220151270651   0.444444019608708   0.875000000000000   1.0000000
N2   N   0.389153075900090   0.945256019771248   0.375000000000000   1.0000000
N2   N   0.223575904597185   0.443935032429254   0.375000000000000   1.0000000
N2   N   0.222423738991953   0.610627689247766   0.375000000000000   1.0000000
N2   N   0.722237315846315   0.944680566806470   0.375000000000000   1.0000000
N2   N   0.887025794498733   0.443935032429254   0.375000000000000   1.0000000
N2   N   0.055552611263223   0.611107313532265   0.875000000000000   1.0000000
N2   N   0.222220917607239   0.111111295773154   0.875000000000000   1.0000000
N2   N   0.722220008900960   0.611109239874080   0.875000000000000   1.0000000
N2   N   0.555557044832579   0.111111295773154   0.875000000000000   1.0000000
N2   N   0.888888172006410   0.111109677346162   0.875000000000000   1.0000000
B2   B   0.111296014880651   0.055833117452149   0.375000000000000   1.0000000
B2   B   0.612073079918886   0.557479493171101   0.375000000000000   1.0000000
B2   B   0.444621327372875   0.056277736128804   0.375000000000000   1.0000000
B2   B   0.943662536887438   0.555215412531401   0.375000000000000   1.0000000
B2   B   0.777860637315642   0.055585225618371   0.375000000000000   1.0000000
B2   B   0.111113741175354   0.722226233208950   0.875000000000000   1.0000000
B2   B   0.444452483406101   0.722239608995886   0.875000000000000   1.0000000
B2   B   0.277749140889756   0.222202871794568   0.875000000000000   1.0000000
B2   B   0.777789992608967   0.722246995698069   0.875000000000000   1.0000000
B2   B   0.611120397571483   0.222202871794568   0.875000000000000   1.0000000
B2   B   0.944437249045859   0.222207831425053   0.875000000000000   1.0000000
B2   B   0.277811931074741   0.722031328830734   0.375000000000000   1.0000000
B2   B   0.110269775428694   0.221811737285129   0.375000000000000   1.0000000
B2   B   0.445493204000395   0.224319741334125   0.375000000000000   1.0000000
B2   B   0.611648024883489   0.723427080534921   0.375000000000000   1.0000000
B2   B   0.943733853998871   0.721678724357984   0.375000000000000   1.0000000
B2   B   0.778208628523107   0.221811737285129   0.375000000000000   1.0000000
B2   B   0.111099146087806   0.888882119239395   0.875000000000000   1.0000000
B2   B   0.444449639818260   0.888882119239395   0.875000000000000   1.0000000
B2   B   0.277761431798379   0.388891454810639   0.875000000000000   1.0000000
B2   B   0.611121751443555   0.388902865633465   0.875000000000000   1.0000000
B2   B   0.777782488909809   0.888898311152947   0.875000000000000   1.0000000
B2   B   0.944453150642174   0.388884926441330   0.875000000000000   1.0000000
B2   B   0.111452317430861   0.388789743936476   0.375000000000000   1.0000000
B2   B   0.277856731773951   0.889046796881231   0.375000000000000   1.0000000
B2   B   0.611170324865828   0.889333245936774   0.375000000000000   1.0000000
B2   B   0.944829587737618   0.889333245936774   0.375000000000000   1.0000000
B2   B   0.776262331312179   0.387535847547598   0.375000000000000   1.0000000
B2   B   0.277775127230344   0.555567427982884   0.875000000000000   1.0000000
B2   B   0.111083266238041   0.055536849638972   0.875000000000000   1.0000000
B2   B   0.611124630769666   0.555582594872662   0.875000000000000   1.0000000
B2   B   0.444440737545226   0.055528790680637   0.875000000000000   1.0000000
B2   B   0.944458967419204   0.555567427982884   0.875000000000000   1.0000000
B2   B   0.111023776447317   0.555380886227963   0.375000000000000   1.0000000
B2   B   0.777781263316407   0.055544178976987   0.875000000000000   1.0000000
B2   B   0.278323075422594   0.056277736128804   0.375000000000000   1.0000000
B2   B   0.446380302728326   0.555284012895064   0.375000000000000   1.0000000
B2   B   0.775570376833403   0.555284012895064   0.375000000000000   1.0000000
B2   B   0.611203769238170   0.055833117452149   0.375000000000000   1.0000000
B2   B   0.444452395170982   0.555582757767794   0.875000000000000   1.0000000
B2   B   0.944391254969393   0.055585225618371   0.375000000000000   1.0000000
B2   B   0.277779158700267   0.722226233208950   0.875000000000000   1.0000000
B2   B   0.111082403873287   0.222205338327031   0.875000000000000   1.0000000
B2   B   0.444434277239909   0.222201887813153   0.875000000000000   1.0000000
B2   B   0.611123669755772   0.722246995698069   0.875000000000000   1.0000000
B2   B   0.944453792256450   0.722239608995886   0.875000000000000   1.0000000
B2   B   0.777789601120416   0.222205338327031   0.875000000000000   1.0000000
B2   B   0.110886064422666   0.722031328830734   0.375000000000000   1.0000000
B2   B   0.444611537025777   0.721678724357984   0.375000000000000   1.0000000
B2   B   0.276602092353590   0.222402819820515   0.375000000000000   1.0000000
B2   B   0.778445722318104   0.723427080534921   0.375000000000000   1.0000000
B2   B   0.612467394133597   0.222402819820515   0.375000000000000   1.0000000
B2   B   0.944430688372077   0.222194710077491   0.375000000000000   1.0000000
B2   B   0.111098442465828   0.388884926441330   0.875000000000000   1.0000000
B2   B   0.277771778902379   0.888876891138086   0.875000000000000   1.0000000
B2   B   0.611121602807684   0.888893776430832   0.875000000000000   1.0000000
B2   B   0.444447780856580   0.388902865633465   0.875000000000000   1.0000000
B2   B   0.944438840289820   0.888893776430832   0.875000000000000   1.0000000
B2   B   0.111170666975021   0.888933926682989   0.375000000000000   1.0000000
B2   B   0.777796689678932   0.388891454810639   0.875000000000000   1.0000000
B2   B   0.444429926374640   0.888933926682989   0.375000000000000   1.0000000
B2   B   0.277940182902090   0.387535847547598   0.375000000000000   1.0000000
B2   B   0.278219542310629   0.555215412531401   0.375000000000000   1.0000000
B2   B   0.778044915307097   0.889423163947520   0.375000000000000   1.0000000
B2   B   0.944004093172286   0.388789743936476   0.375000000000000   1.0000000
B2   B   0.111113477684997   0.555560288703323   0.875000000000000   1.0000000
B2   B   0.277754719802075   0.055528790680637   0.875000000000000   1.0000000
B2   B   0.777797029263476   0.555582757767794   0.875000000000000   1.0000000
B2   B   0.611120250067603   0.055536849638972   0.875000000000000   1.0000000
B2   B   0.944429582327244   0.055544178976987   0.875000000000000   1.0000000
B2   B   0.055503091409915   0.111065116853728   0.124880216354322   1.0000000
B2   B   0.555592661554404   0.611182089498983   0.124749032123244   1.0000000
B2   B   0.388824908569430   0.110983150472203   0.124848741619075   1.0000000
B2   B   0.888969759989397   0.611165793832357   0.124892637741353   1.0000000
B2   B   0.722228692110477   0.111065116853728   0.124880216354322   1.0000000
B2   B   0.055570066970168   0.777760836268962   0.625087884613788   1.0000000
B2   B   0.388857435965458   0.777760836268962   0.625087884613788   1.0000000
B2   B   0.222134161641918   0.277763293143574   0.625202900414006   1.0000000
B2   B   0.722239347917327   0.777812029167991   0.625110614853724   1.0000000
B2   B   0.555603696195604   0.277794931961328   0.625537451740130   1.0000000
B2   B   0.888932195413017   0.277791970242390   0.625126104765995   1.0000000
B2   B   0.222205685495203   0.777744704323741   0.124915181655087   1.0000000
B2   B   0.055526441496037   0.277791970242390   0.124873895234005   1.0000000
B2   B   0.388857902432389   0.277794931961328   0.124462548259870   1.0000000
B2   B   0.555544317964233   0.777793454373556   0.124906022903017   1.0000000
B2   B   0.888915803075988   0.777793454373556   0.124906022903017   1.0000000
B2   B   0.722295798168321   0.277763293143574   0.124797099585994   1.0000000
B2   B   0.055525619259928   0.944385947218220   0.625099905768692   1.0000000
B2   B   0.388838886759388   0.944343418136108   0.625113795635363   1.0000000
B2   B   0.222175069278323   0.444500778352771   0.625119809240653   1.0000000
B2   B   0.555595361158068   0.444524055649463   0.625471004604873   1.0000000
B2   B   0.722214782365923   0.944428210165607   0.625086433305778   1.0000000
B2   B   0.888992375741112   0.444500778352771   0.625119809240653   1.0000000
B2   B   0.055580038894097   0.444493411121522   0.124894324595729   1.0000000
B2   B   0.222171198043384   0.944343418136108   0.124886204364637   1.0000000
B2   B   0.555526994624963   0.944385947218220   0.124900094231307   1.0000000
B2   B   0.388879783848896   0.444494863070414   0.124517910610162   1.0000000
B2   B   0.888880094466348   0.944428210165607   0.124913566694222   1.0000000
B2   B   0.722281745888183   0.444494863070414   0.124517910610162   1.0000000
B2   B   0.222208349510348   0.611145425199331   0.625096192070004   1.0000000
B2   B   0.055503091409915   0.111065116853728   0.625119783645678   1.0000000
B2   B   0.555592661554404   0.611182089498983   0.625250967876755   1.0000000
B2   B   0.388824908569430   0.110983150472203   0.625151258380924   1.0000000
B2   B   0.888969759989397   0.611165793832357   0.625107362258647   1.0000000
B2   B   0.055603742355648   0.611145425199331   0.124903807929996   1.0000000
B2   B   0.722228692110477   0.111065116853728   0.625119783645678   1.0000000
B2   B   0.222139105673365   0.111005178045983   0.124854966166682   1.0000000
B2   B   0.388862700509619   0.611165793832357   0.124892637741353   1.0000000
B2   B   0.722256094611243   0.611182089498983   0.124749032123244   1.0000000
B2   B   0.555532739039282   0.111005178045983   0.124854966166682   1.0000000
B2   B   0.388862700509619   0.611165793832357   0.625107362258647   1.0000000
B2   B   0.888880403815013   0.111094140963370   0.124903417066984   1.0000000
B2   B   0.222205685495203   0.777744704323741   0.625084818344913   1.0000000
B2   B   0.055526441496037   0.277791970242390   0.625126104765995   1.0000000
B2   B   0.388857902432389   0.277794931961328   0.625537451740130   1.0000000
B2   B   0.555544317964233   0.777793454373556   0.625093977096983   1.0000000
B2   B   0.888915803075988   0.777793454373556   0.625093977096983   1.0000000
B2   B   0.722295798168321   0.277763293143574   0.625202900414006   1.0000000
B2   B   0.055570066970168   0.777760836268962   0.124912115386212   1.0000000
B2   B   0.388857435965458   0.777760836268962   0.124912115386212   1.0000000
B2   B   0.222134161641918   0.277763293143574   0.124797099585994   1.0000000
B2   B   0.722239347917327   0.777812029167991   0.124889385146276   1.0000000
B2   B   0.555603696195604   0.277794931961328   0.124462548259870   1.0000000
B2   B   0.888932195413017   0.277791970242390   0.124873895234005   1.0000000
B2   B   0.055580038894097   0.444493411121522   0.625105675404272   1.0000000
B2   B   0.222171198043384   0.944343418136108   0.625113795635363   1.0000000
B2   B   0.555526994624963   0.944385947218220   0.625099905768692   1.0000000
B2   B   0.388879783848896   0.444494863070414   0.625482089389838   1.0000000
B2   B   0.888880094466348   0.944428210165607   0.625086433305778   1.0000000
B2   B   0.055525619259928   0.944385947218220   0.124900094231307   1.0000000
B2   B   0.722281745888183   0.444494863070414   0.625482089389838   1.0000000
B2   B   0.388838886759388   0.944343418136108   0.124886204364637   1.0000000
B2   B   0.222175069278323   0.444500778352771   0.124880190759347   1.0000000
B2   B   0.222208349510348   0.611145425199331   0.124903807929996   1.0000000
B2   B   0.555595361158068   0.444524055649463   0.124528995395127   1.0000000
B2   B   0.722214782365923   0.944428210165607   0.124913566694222   1.0000000
B2   B   0.888992375741112   0.444500778352771   0.124880190759347   1.0000000
B2   B   0.055603742355648   0.611145425199331   0.625096192070004   1.0000000
B2   B   0.222139105673365   0.111005178045983   0.625145033833318   1.0000000
B2   B   0.722256094611243   0.611182089498983   0.625250967876755   1.0000000
B2   B   0.555532739039282   0.111005178045983   0.625145033833318   1.0000000
B2   B   0.888880403815013   0.111094140963370   0.625096582933016   1.0000000


