data_1
_audit_creation_method   'vasp2cif'
_cell_length_a    14.93631414619966
_cell_length_b    14.936314146199727
_cell_length_c    13.341276283792837
_cell_angle_alpha    90.0
_cell_angle_beta    90.0
_cell_angle_gamma    119.99999999999984

_symmetry_space_group_name_H-M    'P 1'
loop_
_atom_site_label
_atom_site_type_symbol
_atom_site_fract_x
_atom_site_fract_y
_atom_site_fract_z
_atom_site_occupancy
As2   As   0.555555555555557   0.444444444444443   0.375000000000000   1.0000000
N2   N   0.111109255892482   0.055535464359809   0.124903979920393   1.0000000
N2   N   0.611166854958033   0.555667043249413   0.130492691447348   1.0000000
N2   N   0.444436986424066   0.055555843462005   0.125573898361794   1.0000000
N2   N   0.944444156537999   0.555563013575960   0.125573898361794   1.0000000
N2   N   0.777760120161689   0.055546726747519   0.124566257314299   1.0000000
N2   N   0.111119837841502   0.722226585587407   0.624781588326466   1.0000000
N2   N   0.444436986424067   0.722214476295390   0.624426101638226   1.0000000
N2   N   0.277753092104945   0.222191817165339   0.623597043580862   1.0000000
N2   N   0.777808182834661   0.722246907895067   0.623597043580862   1.0000000
N2   N   0.611105391727065   0.222191817165339   0.623597043580862   1.0000000
N2   N   0.944453273252475   0.222239879838308   0.625433742685699   1.0000000
N2   N   0.277773414412575   0.722226585587407   0.125218411673539   1.0000000
N2   N   0.111128381619252   0.222230857476292   0.124980957689332   1.0000000
N2   N   0.444459814950045   0.222252963233430   0.127751077384464   1.0000000
N2   N   0.611105391727065   0.722246907895067   0.126402956419144   1.0000000
N2   N   0.944444156537999   0.722214476295390   0.125573898361794   1.0000000
N2   N   0.777769142523717   0.222230857476292   0.124980957689332   1.0000000
N2   N   0.111122709550203   0.888877290449778   0.624915260179339   1.0000000
N2   N   0.444421247566268   0.888877290449778   0.624915260179339   1.0000000
N2   N   0.277753092104946   0.388894608272938   0.623597043580862   1.0000000
N2   N   0.611166854958033   0.388833145041958   0.619507308552643   1.0000000
N2   N   0.777769142523717   0.888871618380741   0.625019042310688   1.0000000
N2   N   0.944464535640198   0.388907124865996   0.625096020079600   1.0000000
N2   N   0.111109255892482   0.388907124865996   0.124903979920391   1.0000000
N2   N   0.277773414412575   0.888880162158479   0.125218411673539   1.0000000
N2   N   0.611092875133991   0.888890744107486   0.124903979920393   1.0000000
N2   N   0.444332956750593   0.388833145041958   0.130492691447348   1.0000000
N2   N   0.944464535640198   0.888890744107486   0.124903979920391   1.0000000
N2   N   0.777808182834661   0.388894608272938   0.126402956419144   1.0000000
N2   N   0.277785523704624   0.555563013575960   0.624426101638226   1.0000000
N2   N   0.111109255892482   0.055535464359809   0.625096020079600   1.0000000
N2   N   0.611166854958033   0.555667043249413   0.619507308552643   1.0000000
N2   N   0.444436986424067   0.055555843462005   0.624426101638226   1.0000000
N2   N   0.944444156537999   0.555563013575960   0.624426101638226   1.0000000
N2   N   0.111122709550203   0.555578752433738   0.125084739820671   1.0000000
N2   N   0.777760120161689   0.055546726747519   0.625433742685699   1.0000000
N2   N   0.277785523704624   0.055555843462005   0.125573898361794   1.0000000
N2   N   0.444459814950045   0.555540185049965   0.127751077384464   1.0000000
N2   N   0.777747036766575   0.555540185049965   0.127751077384464   1.0000000
N2   N   0.611092875133991   0.055535464359809   0.124903979920391   1.0000000
N2   N   0.444459814950045   0.555540185049965   0.622248922615532   1.0000000
N2   N   0.944453273252475   0.055546726747519   0.124566257314299   1.0000000
N2   N   0.277773414412575   0.722226585587407   0.624781588326466   1.0000000
N2   N   0.111128381619252   0.222230857476292   0.625019042310688   1.0000000
N2   N   0.444459814950045   0.222252963233430   0.622248922615532   1.0000000
N2   N   0.611105391727065   0.722246907895067   0.623597043580862   1.0000000
N2   N   0.944444156537999   0.722214476295390   0.624426101638226   1.0000000
N2   N   0.777769142523717   0.222230857476292   0.625019042310688   1.0000000
N2   N   0.111119837841502   0.722226585587407   0.125218411673539   1.0000000
N2   N   0.444436986424066   0.722214476295390   0.125573898361794   1.0000000
N2   N   0.277753092104945   0.222191817165339   0.126402956419146   1.0000000
N2   N   0.777808182834661   0.722246907895067   0.126402956419144   1.0000000
N2   N   0.611105391727065   0.222191817165339   0.126402956419144   1.0000000
N2   N   0.944453273252475   0.222239879838308   0.124566257314299   1.0000000
N2   N   0.111109255892482   0.388907124865996   0.625096020079600   1.0000000
N2   N   0.277773414412575   0.888880162158479   0.624781588326466   1.0000000
N2   N   0.611092875133991   0.888890744107486   0.625096020079600   1.0000000
N2   N   0.444332956750593   0.388833145041958   0.619507308552643   1.0000000
N2   N   0.944464535640198   0.888890744107486   0.625096020079602   1.0000000
N2   N   0.111122709550203   0.888877290449778   0.125084739820671   1.0000000
N2   N   0.777808182834661   0.388894608272938   0.623597043580862   1.0000000
N2   N   0.444421247566268   0.888877290449778   0.125084739820671   1.0000000
N2   N   0.277753092104946   0.388894608272938   0.126402956419148   1.0000000
N2   N   0.277785523704624   0.555563013575960   0.125573898361794   1.0000000
N2   N   0.611166854958033   0.388833145041958   0.130492691447348   1.0000000
N2   N   0.777769142523717   0.888871618380741   0.124980957689332   1.0000000
N2   N   0.944464535640198   0.388907124865996   0.124903979920391   1.0000000
N2   N   0.111122709550203   0.555578752433738   0.624915260179339   1.0000000
N2   N   0.277785523704624   0.055555843462005   0.624426101638226   1.0000000
N2   N   0.777747036766575   0.555540185049965   0.622248922615532   1.0000000
N2   N   0.611092875133991   0.055535464359809   0.625096020079602   1.0000000
N2   N   0.944453273252475   0.055546726747519   0.625433742685699   1.0000000
N2   N   0.054472648673794   0.110438612814409   0.375000000000000   1.0000000
N2   N   0.555943142091306   0.620193329294263   0.375000000000000   1.0000000
N2   N   0.387887743659383   0.109108820652099   0.375000000000000   1.0000000
N2   N   0.890891179347892   0.612112256340627   0.375000000000000   1.0000000
N2   N   0.722632630807279   0.110438612814409   0.375000000000000   1.0000000
N2   N   0.055544249605911   0.777774010786884   0.875000000000000   1.0000000
N2   N   0.388896427847662   0.777774010786884   0.875000000000000   1.0000000
N2   N   0.222208981294859   0.277771157314102   0.875000000000000   1.0000000
N2   N   0.722228842685903   0.777791018705132   0.875000000000000   1.0000000
N2   N   0.555563069601548   0.277784584523966   0.875000000000000   1.0000000
N2   N   0.888891164453839   0.277775115526505   0.875000000000000   1.0000000
N2   N   0.222222222222221   0.777777777777779   0.375000000000000   1.0000000
N2   N   0.054472648673794   0.277367369192730   0.375000000000000   1.0000000
N2   N   0.379806670705733   0.269083146130359   0.375000000000000   1.0000000
N2   N   0.555274710081567   0.781484548711437   0.375000000000000   1.0000000
N2   N   0.892876505296559   0.781484548711437   0.375000000000000   1.0000000
N2   N   0.723890941847957   0.276109058152046   0.375000000000000   1.0000000
N2   N   0.055554347894247   0.944445652105765   0.875000000000000   1.0000000
N2   N   0.388896427847662   0.944455750394095   0.875000000000000   1.0000000
N2   N   0.222220095321300   0.444436966167631   0.875000000000000   1.0000000
N2   N   0.555555555555557   0.444444444444443   0.875000000000000   1.0000000
N2   N   0.722224884473494   0.944449382260652   0.875000000000000   1.0000000
N2   N   0.888883537513005   0.444436966167631   0.875000000000000   1.0000000
N2   N   0.055707158091713   0.444747649516757   0.375000000000000   1.0000000
N2   N   0.221898713505019   0.943595314093011   0.375000000000000   1.0000000
N2   N   0.555252350483265   0.944292841908304   0.375000000000000   1.0000000
N2   N   0.379806670705733   0.444056857908704   0.375000000000000   1.0000000
N2   N   0.889561387185581   0.945527351326208   0.375000000000000   1.0000000
N2   N   0.730916853869651   0.444056857908704   0.375000000000000   1.0000000
N2   N   0.222225989213099   0.611103572152358   0.875000000000000   1.0000000
N2   N   0.055550617739337   0.111108835546170   0.875000000000000   1.0000000
N2   N   0.555563069601548   0.611111818410913   0.875000000000000   1.0000000
N2   N   0.388899536322683   0.111132405978688   0.875000000000000   1.0000000
N2   N   0.888867594021291   0.611100463677331   0.875000000000000   1.0000000
N2   N   0.056404685906993   0.611636732745356   0.375000000000000   1.0000000
N2   N   0.722224884473494   0.111108835546170   0.875000000000000   1.0000000
N2   N   0.218515451288548   0.107123494703440   0.375000000000000   1.0000000
N2   N   0.387887743659383   0.612112256340627   0.375000000000000   1.0000000
N2   N   0.730916853869651   0.620193329294263   0.375000000000000   1.0000000
N2   N   0.555274710081567   0.107123494703440   0.375000000000000   1.0000000
N2   N   0.388899536322683   0.611100463677331   0.875000000000000   1.0000000
N2   N   0.888888888888886   0.111111111111114   0.375000000000000   1.0000000
N2   N   0.222222222222221   0.777777777777779   0.875000000000000   1.0000000
N2   N   0.055550617739337   0.277775115526505   0.875000000000000   1.0000000
N2   N   0.388888181589088   0.277784584523966   0.875000000000000   1.0000000
N2   N   0.555563033832369   0.777779904678697   0.875000000000000   1.0000000
N2   N   0.888883537513005   0.777779904678697   0.875000000000000   1.0000000
N2   N   0.722228842685903   0.277771157314102   0.875000000000000   1.0000000
N2   N   0.056404685906993   0.778101286494995   0.375000000000000   1.0000000
N2   N   0.388363267254653   0.778101286494995   0.375000000000000   1.0000000
N2   N   0.218884782970741   0.276109058152046   0.375000000000000   1.0000000
N2   N   0.723890941847957   0.781115217029243   0.375000000000000   1.0000000
N2   N   0.555943142091306   0.269083146130359   0.375000000000000   1.0000000
N2   N   0.889561387185581   0.277367369192730   0.375000000000000   1.0000000
N2   N   0.055554347894247   0.444442029121828   0.875000000000000   1.0000000
N2   N   0.222225989213099   0.944455750394095   0.875000000000000   1.0000000
N2   N   0.555557970878167   0.944445652105765   0.875000000000000   1.0000000
N2   N   0.388888181589088   0.444436930398466   0.875000000000000   1.0000000
N2   N   0.888891164453839   0.944449382260652   0.875000000000000   1.0000000
N2   N   0.055707158091713   0.944292841908304   0.375000000000000   1.0000000
N2   N   0.722215415476034   0.444436930398466   0.875000000000000   1.0000000
N2   N   0.388363267254653   0.943595314093011   0.375000000000000   1.0000000
N2   N   0.218515451288548   0.444725289918454   0.375000000000000   1.0000000
N2   N   0.221898713505019   0.611636732745356   0.375000000000000   1.0000000
N2   N   0.722632630807279   0.945527351326208   0.375000000000000   1.0000000
N2   N   0.892876505296559   0.444725289918454   0.375000000000000   1.0000000
N2   N   0.055544249605911   0.611103572152358   0.875000000000000   1.0000000
N2   N   0.222220095321300   0.111116462486995   0.875000000000000   1.0000000
N2   N   0.722215415476034   0.611111818410913   0.875000000000000   1.0000000
N2   N   0.555563033832369   0.111116462486995   0.875000000000000   1.0000000
N2   N   0.888888888888886   0.111111111111114   0.875000000000000   1.0000000
B2   B   0.108636099827323   0.053782505020664   0.375000000000000   1.0000000
B2   B   0.625374427897634   0.584082189128600   0.375000000000000   1.0000000
B2   B   0.444157826531844   0.053417161499452   0.375000000000000   1.0000000
B2   B   0.946582838500543   0.555842173468160   0.375000000000000   1.0000000
B2   B   0.778397239176680   0.055865286255015   0.375000000000000   1.0000000
B2   B   0.111104612805672   0.722218973069501   0.875000000000000   1.0000000
B2   B   0.444447014886051   0.722266125312512   0.875000000000000   1.0000000
B2   B   0.277672227883963   0.222150148656210   0.875000000000000   1.0000000
B2   B   0.777849851343772   0.722327772116041   0.875000000000000   1.0000000
B2   B   0.611144587438923   0.222150148656210   0.875000000000000   1.0000000
B2   B   0.944442753537290   0.222218840407907   0.875000000000000   1.0000000
B2   B   0.277490850763796   0.722509149236203   0.375000000000000   1.0000000
B2   B   0.108109662846011   0.220721498089674   0.375000000000000   1.0000000
B2   B   0.442274126018247   0.217881585369838   0.375000000000000   1.0000000
B2   B   0.612744490415869   0.730664603755218   0.375000000000000   1.0000000
B2   B   0.946582838500543   0.724073998365704   0.375000000000000   1.0000000
B2   B   0.779278501910337   0.220721498089674   0.375000000000000   1.0000000
B2   B   0.111113134227460   0.888886865772514   0.875000000000000   1.0000000
B2   B   0.444440398211754   0.888886865772514   0.875000000000000   1.0000000
B2   B   0.277672227883963   0.388855412561090   0.875000000000000   1.0000000
B2   B   0.611178353384909   0.388821646615069   0.875000000000000   1.0000000
B2   B   0.777817970347357   0.888969274028112   0.875000000000000   1.0000000
B2   B   0.944452224728691   0.388854706677332   0.875000000000000   1.0000000
B2   B   0.108636099827323   0.388186928139991   0.375000000000000   1.0000000
B2   B   0.277490850763796   0.888315034860920   0.375000000000000   1.0000000
B2   B   0.611813071860031   0.891363900172659   0.375000000000000   1.0000000
B2   B   0.415917810871401   0.374625572102364   0.375000000000000   1.0000000
B2   B   0.946217494979323   0.891363900172659   0.375000000000000   1.0000000
B2   B   0.784586780006011   0.387255509584131   0.375000000000000   1.0000000
B2   B   0.277733874687477   0.555552985113963   0.875000000000000   1.0000000
B2   B   0.111069148615311   0.055547775271304   0.875000000000000   1.0000000
B2   B   0.611178353384909   0.555690040103192   0.875000000000000   1.0000000
B2   B   0.444447014886051   0.055514222906864   0.875000000000000   1.0000000
B2   B   0.944485777093142   0.555552985113963   0.875000000000000   1.0000000
B2   B   0.111169293873116   0.555671921079563   0.375000000000000   1.0000000
B2   B   0.777781159592079   0.055557246462714   0.875000000000000   1.0000000
B2   B   0.275926001634281   0.053417161499452   0.375000000000000   1.0000000
B2   B   0.442274126018247   0.557725873981753   0.375000000000000   1.0000000
B2   B   0.782118414630171   0.557725873981753   0.375000000000000   1.0000000
B2   B   0.611813071860031   0.053782505020664   0.375000000000000   1.0000000
B2   B   0.444413085314798   0.555586914685186   0.875000000000000   1.0000000
B2   B   0.944134713744991   0.055865286255015   0.375000000000000   1.0000000
B2   B   0.277781026930495   0.722218973069501   0.875000000000000   1.0000000
B2   B   0.111030725971924   0.222182029652625   0.875000000000000   1.0000000
B2   B   0.444413085314798   0.222159503962953   0.875000000000000   1.0000000
B2   B   0.611144587438923   0.722327772116041   0.875000000000000   1.0000000
B2   B   0.944485777093142   0.722266125312512   0.875000000000000   1.0000000
B2   B   0.777817970347357   0.222182029652625   0.875000000000000   1.0000000
B2   B   0.111684965139095   0.722509149236203   0.375000000000000   1.0000000
B2   B   0.444157826531844   0.724073998365704   0.375000000000000   1.0000000
B2   B   0.269335396244764   0.215413219993970   0.375000000000000   1.0000000
B2   B   0.784586780006011   0.730664603755218   0.375000000000000   1.0000000
B2   B   0.612744490415869   0.215413219993970   0.375000000000000   1.0000000
B2   B   0.944134713744991   0.221602760823310   0.375000000000000   1.0000000
B2   B   0.111069148615311   0.388854706677332   0.875000000000000   1.0000000
B2   B   0.277781026930495   0.888895387194319   0.875000000000000   1.0000000
B2   B   0.611145293322655   0.888930851384670   0.875000000000000   1.0000000
B2   B   0.444309959896798   0.388821646615069   0.875000000000000   1.0000000
B2   B   0.944452224728691   0.888930851384670   0.875000000000000   1.0000000
B2   B   0.111169293873116   0.888830706126888   0.375000000000000   1.0000000
B2   B   0.777849851343772   0.388855412561090   0.875000000000000   1.0000000
B2   B   0.444328078920441   0.888830706126888   0.375000000000000   1.0000000
B2   B   0.269335396244764   0.387255509584131   0.375000000000000   1.0000000
B2   B   0.275926001634281   0.555842173468160   0.375000000000000   1.0000000
B2   B   0.625374427897634   0.374625572102364   0.375000000000000   1.0000000
B2   B   0.779278501910337   0.891890337153991   0.375000000000000   1.0000000
B2   B   0.946217494979323   0.388186928139991   0.375000000000000   1.0000000
B2   B   0.111113134227460   0.555559601788249   0.875000000000000   1.0000000
B2   B   0.277733874687477   0.055514222906864   0.875000000000000   1.0000000
B2   B   0.777840496037068   0.555586914685186   0.875000000000000   1.0000000
B2   B   0.611145293322655   0.055547775271304   0.875000000000000   1.0000000
B2   B   0.944442753537290   0.055557246462714   0.875000000000000   1.0000000
B2   B   0.055485341198622   0.111040225111691   0.124449482655765   1.0000000
B2   B   0.555516976274504   0.611509144790359   0.127410319180704   1.0000000
B2   B   0.388702612640627   0.110738558614612   0.125626763989630   1.0000000
B2   B   0.889261441385402   0.611297387359343   0.125626763989630   1.0000000
B2   B   0.722221550579738   0.111040225111691   0.124449482655765   1.0000000
B2   B   0.055708954756277   0.777836382707229   0.625122219238661   1.0000000
B2   B   0.388794094617615   0.777836382707229   0.625122219238661   1.0000000
B2   B   0.221981670019259   0.277657501676295   0.624622011954186   1.0000000
B2   B   0.722342498323715   0.778018329980746   0.624622011954186   1.0000000
B2   B   0.555516976274504   0.277341164817505   0.622589680819287   1.0000000
B2   B   0.888959774888317   0.277778449420273   0.625550517344250   1.0000000
B2   B   0.222222222222221   0.777777777777779   0.124851002555640   1.0000000
B2   B   0.055485341198622   0.277778449420273   0.124449482655765   1.0000000
B2   B   0.388490855209669   0.277341164817505   0.127410319180704   1.0000000
B2   B   0.555517126250049   0.777969341576804   0.125096547186778   1.0000000
B2   B   0.889118881993408   0.777969341576804   0.125096547186778   1.0000000
B2   B   0.722342498323715   0.277657501676295   0.125377988045826   1.0000000
B2   B   0.055578364850261   0.944421635149723   0.625435565756392   1.0000000
B2   B   0.388794094617615   0.944291045243712   0.625122219238661   1.0000000
B2   B   0.222030658423221   0.444482873749982   0.624903452813212   1.0000000
B2   B   0.555555555555557   0.444444444444443   0.620694980183367   1.0000000
B2   B   0.722221550579738   0.944514658801381   0.625550517344250   1.0000000
B2   B   0.889118881993408   0.444482873749982   0.624903452813212   1.0000000
B2   B   0.055578364850261   0.444490063033859   0.124564434243597   1.0000000
B2   B   0.222163617292768   0.944291045243712   0.124877780761356   1.0000000
B2   B   0.555509936966137   0.944421635149723   0.124564434243597   1.0000000
B2   B   0.388490855209669   0.444483023725476   0.127410319180704   1.0000000
B2   B   0.888959774888317   0.944514658801381   0.124449482655765   1.0000000
B2   B   0.722658835182483   0.444483023725476   0.127410319180704   1.0000000
B2   B   0.222163617292768   0.611205905382390   0.625122219238661   1.0000000
B2   B   0.055485341198622   0.111040225111691   0.625550517344250   1.0000000
B2   B   0.555516976274504   0.611509144790359   0.622589680819287   1.0000000
B2   B   0.388702612640627   0.110738558614612   0.624373236010348   1.0000000
B2   B   0.889261441385402   0.611297387359343   0.624373236010348   1.0000000
B2   B   0.055708954756277   0.611205905382390   0.124877780761356   1.0000000
B2   B   0.722221550579738   0.111040225111691   0.625550517344250   1.0000000
B2   B   0.222030658423221   0.110881118006591   0.125096547186778   1.0000000
B2   B   0.388702612640627   0.611297387359343   0.125626763989630   1.0000000
B2   B   0.722658835182483   0.611509144790359   0.127410319180704   1.0000000
B2   B   0.555517126250049   0.110881118006591   0.125096547186778   1.0000000
B2   B   0.388702612640627   0.611297387359343   0.624373236010348   1.0000000
B2   B   0.888888888888886   0.111111111111114   0.124232223613124   1.0000000
B2   B   0.222222222222221   0.777777777777779   0.625148997444355   1.0000000
B2   B   0.055485341198622   0.277778449420273   0.625550517344250   1.0000000
B2   B   0.388490855209669   0.277341164817505   0.622589680819287   1.0000000
B2   B   0.555517126250049   0.777969341576804   0.624903452813212   1.0000000
B2   B   0.889118881993408   0.777969341576804   0.624903452813212   1.0000000
B2   B   0.722342498323715   0.277657501676295   0.624622011954186   1.0000000
B2   B   0.055708954756277   0.777836382707229   0.124877780761356   1.0000000
B2   B   0.388794094617615   0.777836382707229   0.124877780761356   1.0000000
B2   B   0.221981670019259   0.277657501676295   0.125377988045826   1.0000000
B2   B   0.722342498323715   0.778018329980746   0.125377988045826   1.0000000
B2   B   0.555516976274504   0.277341164817505   0.127410319180704   1.0000000
B2   B   0.888959774888317   0.277778449420273   0.124449482655765   1.0000000
B2   B   0.055578364850261   0.444490063033859   0.625435565756392   1.0000000
B2   B   0.222163617292768   0.944291045243712   0.625122219238661   1.0000000
B2   B   0.555509936966137   0.944421635149723   0.625435565756392   1.0000000
B2   B   0.388490855209669   0.444483023725476   0.622589680819287   1.0000000
B2   B   0.888959774888317   0.944514658801381   0.625550517344250   1.0000000
B2   B   0.055578364850261   0.944421635149723   0.124564434243597   1.0000000
B2   B   0.722658835182483   0.444483023725476   0.622589680819287   1.0000000
B2   B   0.388794094617615   0.944291045243712   0.124877780761356   1.0000000
B2   B   0.222030658423221   0.444482873749982   0.125096547186778   1.0000000
B2   B   0.222163617292768   0.611205905382390   0.124877780761356   1.0000000
B2   B   0.555555555555557   0.444444444444443   0.129305019816628   1.0000000
B2   B   0.722221550579738   0.944514658801381   0.124449482655765   1.0000000
B2   B   0.889118881993408   0.444482873749982   0.125096547186778   1.0000000
B2   B   0.055708954756277   0.611205905382390   0.625122219238661   1.0000000
B2   B   0.222030658423221   0.110881118006591   0.624903452813212   1.0000000
B2   B   0.722658835182483   0.611509144790359   0.622589680819287   1.0000000
B2   B   0.555517126250049   0.110881118006591   0.624903452813212   1.0000000
B2   B   0.888888888888886   0.111111111111114   0.625767776386859   1.0000000


