data_1
_audit_creation_method   'vasp2cif'
_cell_length_a    14.93631414619966
_cell_length_b    14.936314146199727
_cell_length_c    13.341276283792837
_cell_angle_alpha    90.0
_cell_angle_beta    90.0
_cell_angle_gamma    119.99999999999984

_symmetry_space_group_name_H-M    'P 1'
loop_
_atom_site_label
_atom_site_type_symbol
_atom_site_fract_x
_atom_site_fract_y
_atom_site_fract_z
_atom_site_occupancy
C2   C   0.555555555555557   0.444444444444443   0.375000000000000   1.0000000
N2   N   0.111098956154225   0.055555813601196   0.124937774478862   1.0000000
N2   N   0.611141610066283   0.555616553465894   0.124291782493621   1.0000000
N2   N   0.444453768096826   0.055569445199334   0.124921470161950   1.0000000
N2   N   0.944430554800666   0.555546231903174   0.124921470161950   1.0000000
N2   N   0.777775864550206   0.055554598941771   0.124935570044484   1.0000000
N2   N   0.111094456712429   0.722213895022879   0.625051679273777   1.0000000
N2   N   0.444453768096826   0.722217656230828   0.625078529838050   1.0000000
N2   N   0.277766690209768   0.222230431923309   0.625143593575696   1.0000000
N2   N   0.777769568076691   0.722233309790232   0.625143593575696   1.0000000
N2   N   0.611130408380213   0.222230431923309   0.625143593575696   1.0000000
N2   N   0.944445401058229   0.222224135449794   0.625064429955516   1.0000000
N2   N   0.277786104977121   0.722213895022879   0.124948320726223   1.0000000
N2   N   0.111089319283127   0.222211326308228   0.124862597841017   1.0000000
N2   N   0.444447464373376   0.222228262080088   0.124807581414768   1.0000000
N2   N   0.611130408380213   0.722233309790232   0.124856406424304   1.0000000
N2   N   0.944430554800666   0.722217656230828   0.124921470161950   1.0000000
N2   N   0.777788673691772   0.222211326308228   0.124862597841017   1.0000000
N2   N   0.111106354020514   0.888893645979486   0.625097667577935   1.0000000
N2   N   0.444453958625643   0.888893645979486   0.625097667577935   1.0000000
N2   N   0.277766690209768   0.388869591619787   0.625143593575696   1.0000000
N2   N   0.611141610066283   0.388858389933718   0.625708217506379   1.0000000
N2   N   0.777788673691772   0.888910680716873   0.625137402158983   1.0000000
N2   N   0.944444186398804   0.388876475886358   0.625062225521137   1.0000000
N2   N   0.111098956154225   0.388876475886358   0.124937774478862   1.0000000
N2   N   0.277786104977121   0.888905543287571   0.124948320726223   1.0000000
N2   N   0.611123524113642   0.888901043845775   0.124937774478862   1.0000000
N2   N   0.444383446534106   0.388858389933718   0.124291782493621   1.0000000
N2   N   0.944444186398804   0.888901043845775   0.124937774478862   1.0000000
N2   N   0.777769568076691   0.388869591619787   0.124856406424304   1.0000000
N2   N   0.277782343769172   0.555546231903174   0.625078529838050   1.0000000
N2   N   0.111098956154225   0.055555813601196   0.625062225521137   1.0000000
N2   N   0.611141610066283   0.555616553465894   0.625708217506379   1.0000000
N2   N   0.444453768096826   0.055569445199334   0.625078529838050   1.0000000
N2   N   0.944430554800666   0.555546231903174   0.625078529838050   1.0000000
N2   N   0.111106354020514   0.555546041374357   0.124902332422065   1.0000000
N2   N   0.777775864550206   0.055554598941771   0.625064429955516   1.0000000
N2   N   0.277782343769172   0.055569445199334   0.124921470161950   1.0000000
N2   N   0.444447464373376   0.555552535626624   0.124807581414768   1.0000000
N2   N   0.777771737919912   0.555552535626624   0.124807581414768   1.0000000
N2   N   0.611123524113642   0.055555813601196   0.124937774478862   1.0000000
N2   N   0.444447464373376   0.555552535626624   0.625192418585232   1.0000000
N2   N   0.944445401058229   0.055554598941771   0.124935570044484   1.0000000
N2   N   0.277786104977121   0.722213895022879   0.625051679273777   1.0000000
N2   N   0.111089319283127   0.222211326308228   0.625137402158983   1.0000000
N2   N   0.444447464373376   0.222228262080088   0.625192418585232   1.0000000
N2   N   0.611130408380213   0.722233309790232   0.625143593575696   1.0000000
N2   N   0.944430554800666   0.722217656230828   0.625078529838050   1.0000000
N2   N   0.777788673691772   0.222211326308228   0.625137402158983   1.0000000
N2   N   0.111094456712429   0.722213895022879   0.124948320726223   1.0000000
N2   N   0.444453768096826   0.722217656230828   0.124921470161950   1.0000000
N2   N   0.277766690209768   0.222230431923309   0.124856406424304   1.0000000
N2   N   0.777769568076691   0.722233309790232   0.124856406424304   1.0000000
N2   N   0.611130408380213   0.222230431923309   0.124856406424304   1.0000000
N2   N   0.944445401058229   0.222224135449794   0.124935570044484   1.0000000
N2   N   0.111098956154225   0.388876475886358   0.625062225521137   1.0000000
N2   N   0.277786104977121   0.888905543287571   0.625051679273777   1.0000000
N2   N   0.611123524113642   0.888901043845775   0.625062225521137   1.0000000
N2   N   0.444383446534106   0.388858389933718   0.625708217506379   1.0000000
N2   N   0.944444186398804   0.888901043845775   0.625062225521137   1.0000000
N2   N   0.111106354020514   0.888893645979486   0.124902332422065   1.0000000
N2   N   0.777769568076691   0.388869591619787   0.625143593575696   1.0000000
N2   N   0.444453958625643   0.888893645979486   0.124902332422065   1.0000000
N2   N   0.277766690209768   0.388869591619787   0.124856406424304   1.0000000
N2   N   0.277782343769172   0.555546231903174   0.124921470161950   1.0000000
N2   N   0.611141610066283   0.388858389933718   0.124291782493621   1.0000000
N2   N   0.777788673691772   0.888910680716873   0.124862597841017   1.0000000
N2   N   0.944444186398804   0.388876475886358   0.124937774478862   1.0000000
N2   N   0.111106354020514   0.555546041374357   0.625097667577935   1.0000000
N2   N   0.277782343769172   0.055569445199334   0.625078529838050   1.0000000
N2   N   0.777771737919912   0.555552535626624   0.625192418585232   1.0000000
N2   N   0.611123524113642   0.055555813601196   0.625062225521137   1.0000000
N2   N   0.944445401058229   0.055554598941771   0.625064429955516   1.0000000
N2   N   0.055314176613387   0.110933954848843   0.375000000000000   1.0000000
N2   N   0.555621090144536   0.613420710379448   0.375000000000000   1.0000000
N2   N   0.388537266474139   0.110407866281622   0.375000000000000   1.0000000
N2   N   0.889592133718378   0.611462733525860   0.375000000000000   1.0000000
N2   N   0.722286444902121   0.110933954848843   0.375000000000000   1.0000000
N2   N   0.055542549384242   0.777755360428845   0.875000000000000   1.0000000
N2   N   0.388879477711267   0.777755360428845   0.875000000000000   1.0000000
N2   N   0.222246921129100   0.277790127231218   0.875000000000000   1.0000000
N2   N   0.722209872768782   0.777753078870900   0.875000000000000   1.0000000
N2   N   0.555571260560293   0.277788213589742   0.875000000000000   1.0000000
N2   N   0.888909631037489   0.277790283927117   0.875000000000000   1.0000000
N2   N   0.222222222222221   0.777777777777779   0.375000000000000   1.0000000
N2   N   0.055314176613387   0.277713555097879   0.375000000000000   1.0000000
N2   N   0.386579289620552   0.275533713098424   0.375000000000000   1.0000000
N2   N   0.555414690393252   0.778661562137325   0.375000000000000   1.0000000
N2   N   0.889913538410737   0.778661562137325   0.375000000000000   1.0000000
N2   N   0.722635097283428   0.277364902716572   0.375000000000000   1.0000000
N2   N   0.055547250433208   0.944452749566792   0.875000000000000   1.0000000
N2   N   0.388879477711267   0.944457450615758   0.875000000000000   1.0000000
N2   N   0.222221850926007   0.444446584238308   0.875000000000000   1.0000000
N2   N   0.555555555555557   0.444444444444443   0.875000000000000   1.0000000
N2   N   0.722209716072883   0.944452680443708   0.875000000000000   1.0000000
N2   N   0.888891399978966   0.444446584238308   0.875000000000000   1.0000000
N2   N   0.055627273741421   0.444587880816171   0.375000000000000   1.0000000
N2   N   0.222113986421996   0.944136053547655   0.375000000000000   1.0000000
N2   N   0.555412119183829   0.944372726258578   0.375000000000000   1.0000000
N2   N   0.386579289620552   0.444378909855464   0.375000000000000   1.0000000
N2   N   0.889066045151157   0.944685823386613   0.375000000000000   1.0000000
N2   N   0.724466286901576   0.444378909855464   0.375000000000000   1.0000000
N2   N   0.222244639571155   0.611120522288733   0.875000000000000   1.0000000
N2   N   0.055547319556292   0.111090368962511   0.875000000000000   1.0000000
N2   N   0.555571260560293   0.611116380303887   0.875000000000000   1.0000000
N2   N   0.388882658616613   0.111098650566569   0.875000000000000   1.0000000
N2   N   0.888901349433431   0.611117341383387   0.875000000000000   1.0000000
N2   N   0.055863946452345   0.611311266207677   0.375000000000000   1.0000000
N2   N   0.722209716072883   0.111090368962511   0.875000000000000   1.0000000
N2   N   0.221338437862676   0.110086461589263   0.375000000000000   1.0000000
N2   N   0.388537266474139   0.611462733525860   0.375000000000000   1.0000000
N2   N   0.724466286901576   0.613420710379448   0.375000000000000   1.0000000
N2   N   0.555414690393252   0.110086461589263   0.375000000000000   1.0000000
N2   N   0.388882658616613   0.611117341383387   0.875000000000000   1.0000000
N2   N   0.888888888888886   0.111111111111114   0.375000000000000   1.0000000
N2   N   0.222222222222221   0.777777777777779   0.875000000000000   1.0000000
N2   N   0.055547319556292   0.277790283927117   0.875000000000000   1.0000000
N2   N   0.388883619696113   0.277788213589742   0.875000000000000   1.0000000
N2   N   0.555553415761692   0.777778149073993   0.875000000000000   1.0000000
N2   N   0.888891399978966   0.777778149073993   0.875000000000000   1.0000000
N2   N   0.722209872768782   0.277790127231218   0.875000000000000   1.0000000
N2   N   0.055863946452345   0.777886013578004   0.375000000000000   1.0000000
N2   N   0.388688733792323   0.777886013578004   0.375000000000000   1.0000000
N2   N   0.221396472099809   0.277364902716572   0.375000000000000   1.0000000
N2   N   0.722635097283428   0.778603527900192   0.375000000000000   1.0000000
N2   N   0.555621090144536   0.275533713098424   0.375000000000000   1.0000000
N2   N   0.889066045151157   0.277713555097879   0.375000000000000   1.0000000
N2   N   0.055547250433208   0.444427834199744   0.875000000000000   1.0000000
N2   N   0.222244639571155   0.944457450615758   0.875000000000000   1.0000000
N2   N   0.555572165800256   0.944452749566792   0.875000000000000   1.0000000
N2   N   0.388883619696113   0.444428739439707   0.875000000000000   1.0000000
N2   N   0.888909631037489   0.944452680443708   0.875000000000000   1.0000000
N2   N   0.055627273741421   0.944372726258578   0.375000000000000   1.0000000
N2   N   0.722211786410258   0.444428739439707   0.875000000000000   1.0000000
N2   N   0.388688733792323   0.944136053547655   0.375000000000000   1.0000000
N2   N   0.221338437862676   0.444585309606748   0.375000000000000   1.0000000
N2   N   0.222113986421996   0.611311266207677   0.375000000000000   1.0000000
N2   N   0.722286444902121   0.944685823386613   0.375000000000000   1.0000000
N2   N   0.889913538410737   0.444585309606748   0.375000000000000   1.0000000
N2   N   0.055542549384242   0.611120522288733   0.875000000000000   1.0000000
N2   N   0.222221850926007   0.111108600021034   0.875000000000000   1.0000000
N2   N   0.722211786410258   0.611116380303887   0.875000000000000   1.0000000
N2   N   0.555553415761692   0.111108600021034   0.875000000000000   1.0000000
N2   N   0.888888888888886   0.111111111111114   0.875000000000000   1.0000000
B2   B   0.110847061458689   0.055257841860212   0.375000000000000   1.0000000
B2   B   0.611870246225398   0.557073825784124   0.375000000000000   1.0000000
B2   B   0.444280733044938   0.055352518018938   0.375000000000000   1.0000000
B2   B   0.944647481981062   0.555719266955062   0.375000000000000   1.0000000
B2   B   0.777761238938757   0.055547286136046   0.375000000000000   1.0000000
B2   B   0.110989334753345   0.722161334043337   0.875000000000000   1.0000000
B2   B   0.444347409494781   0.722151790531855   0.875000000000000   1.0000000
B2   B   0.277879595775465   0.222363100400053   0.875000000000000   1.0000000
B2   B   0.777636899599947   0.722120404224535   0.875000000000000   1.0000000
B2   B   0.611150171291260   0.222363100400053   0.875000000000000   1.0000000
B2   B   0.944504698737947   0.222342730809230   0.875000000000000   1.0000000
B2   B   0.277748581849024   0.722251418150977   0.375000000000000   1.0000000
B2   B   0.111017357313145   0.222175345323237   0.375000000000000   1.0000000
B2   B   0.444526155299366   0.222385643932068   0.375000000000000   1.0000000
B2   B   0.610959514998596   0.722882757005300   0.375000000000000   1.0000000
B2   B   0.944647481981062   0.722261548359336   0.375000000000000   1.0000000
B2   B   0.777824654676763   0.222175345323237   0.375000000000000   1.0000000
B2   B   0.111109596682568   0.888890403317432   0.875000000000000   1.0000000
B2   B   0.444447473301535   0.888890403317432   0.875000000000000   1.0000000
B2   B   0.277879595775465   0.388849828708741   0.875000000000000   1.0000000
B2   B   0.611134330408973   0.388865669591027   0.875000000000000   1.0000000
B2   B   0.777763566150441   0.888860465634211   0.875000000000000   1.0000000
B2   B   0.944489983856839   0.388842572763533   0.875000000000000   1.0000000
B2   B   0.110847061458689   0.388922552931806   0.375000000000000   1.0000000
B2   B   0.277748581849024   0.888830497031376   0.375000000000000   1.0000000
B2   B   0.611077447068194   0.889152938541310   0.375000000000000   1.0000000
B2   B   0.442926174215876   0.388129753774602   0.375000000000000   1.0000000
B2   B   0.944742158139788   0.889152938541310   0.375000000000000   1.0000000
B2   B   0.778589908673375   0.389040485001404   0.375000000000000   1.0000000
B2   B   0.277848209468145   0.555652590505219   0.875000000000000   1.0000000
B2   B   0.111019255573365   0.055510016143161   0.875000000000000   1.0000000
B2   B   0.611134330408973   0.555601994151275   0.875000000000000   1.0000000
B2   B   0.444347409494781   0.055528952296262   0.875000000000000   1.0000000
B2   B   0.944471047703738   0.555652590505219   0.875000000000000   1.0000000
B2   B   0.111172636197997   0.555678605729324   0.375000000000000   1.0000000
B2   B   0.777657269190770   0.055495301262053   0.875000000000000   1.0000000
B2   B   0.277738451640664   0.055352518018938   0.375000000000000   1.0000000
B2   B   0.444526155299366   0.555473844700633   0.375000000000000   1.0000000
B2   B   0.777614356067932   0.555473844700633   0.375000000000000   1.0000000
B2   B   0.611077447068194   0.055257841860212   0.375000000000000   1.0000000
B2   B   0.444466221016006   0.555533778983995   0.875000000000000   1.0000000
B2   B   0.944452713863953   0.055547286136046   0.375000000000000   1.0000000
B2   B   0.277838665956663   0.722161334043337   0.875000000000000   1.0000000
B2   B   0.111139534365789   0.222236433849559   0.875000000000000   1.0000000
B2   B   0.444466221016006   0.222265775365347   0.875000000000000   1.0000000
B2   B   0.611150171291260   0.722120404224535   0.875000000000000   1.0000000
B2   B   0.944471047703738   0.722151790531855   0.875000000000000   1.0000000
B2   B   0.777763566150441   0.222236433849559   0.875000000000000   1.0000000
B2   B   0.111169502968625   0.722251418150977   0.375000000000000   1.0000000
B2   B   0.444280733044938   0.722261548359336   0.375000000000000   1.0000000
B2   B   0.277117242994700   0.221410091326625   0.375000000000000   1.0000000
B2   B   0.778589908673375   0.722882757005300   0.375000000000000   1.0000000
B2   B   0.610959514998596   0.221410091326625   0.375000000000000   1.0000000
B2   B   0.944452713863953   0.222238761061243   0.375000000000000   1.0000000
B2   B   0.111019255573365   0.388842572763533   0.875000000000000   1.0000000
B2   B   0.277838665956663   0.889010665246655   0.875000000000000   1.0000000
B2   B   0.611157427236468   0.888980744426635   0.875000000000000   1.0000000
B2   B   0.444398005848725   0.388865669591027   0.875000000000000   1.0000000
B2   B   0.944489983856839   0.888980744426635   0.875000000000000   1.0000000
B2   B   0.111172636197997   0.888827363802003   0.375000000000000   1.0000000
B2   B   0.777636899599947   0.388849828708741   0.875000000000000   1.0000000
B2   B   0.444321394270676   0.888827363802003   0.375000000000000   1.0000000
B2   B   0.277117242994700   0.389040485001404   0.375000000000000   1.0000000
B2   B   0.277738451640664   0.555719266955062   0.375000000000000   1.0000000
B2   B   0.611870246225398   0.388129753774602   0.375000000000000   1.0000000
B2   B   0.777824654676763   0.888982642686855   0.375000000000000   1.0000000
B2   B   0.944742158139788   0.388922552931806   0.375000000000000   1.0000000
B2   B   0.111109596682568   0.555552526698465   0.875000000000000   1.0000000
B2   B   0.277848209468145   0.055528952296262   0.875000000000000   1.0000000
B2   B   0.777734224634653   0.555533778983995   0.875000000000000   1.0000000
B2   B   0.611157427236468   0.055510016143161   0.875000000000000   1.0000000
B2   B   0.944504698737947   0.055495301262053   0.875000000000000   1.0000000
B2   B   0.055549312171273   0.111078017479845   0.124991780797310   1.0000000
B2   B   0.555664136740858   0.610981645983649   0.125153556218528   1.0000000
B2   B   0.388954616669986   0.111242566673316   0.125075845217861   1.0000000
B2   B   0.888757433326684   0.611045383330014   0.125075845217861   1.0000000
B2   B   0.722195371975236   0.111078017479845   0.124991780797310   1.0000000
B2   B   0.055450071660627   0.777683969491340   0.625005548351221   1.0000000
B2   B   0.388900564497377   0.777683969491340   0.625005548351221   1.0000000
B2   B   0.222384069777650   0.277858701555493   0.624943682594194   1.0000000
B2   B   0.722141298444507   0.777615930222350   0.624943682594194   1.0000000
B2   B   0.555664136740858   0.278015824090545   0.624846443781472   1.0000000
B2   B   0.888921982520155   0.277804628024764   0.625008219202690   1.0000000
B2   B   0.222222222222221   0.777777777777779   0.125001241778970   1.0000000
B2   B   0.055549312171273   0.277804628024764   0.124991780797310   1.0000000
B2   B   0.389018354016351   0.278015824090545   0.125153556218528   1.0000000
B2   B   0.555593473894194   0.777700172784952   0.125055635264783   1.0000000
B2   B   0.888773365557422   0.777700172784952   0.125055635264783   1.0000000
B2   B   0.722141298444507   0.277858701555493   0.125056317405806   1.0000000
B2   B   0.055509767645620   0.944490232354380   0.625004497531726   1.0000000
B2   B   0.388900564497377   0.944549928339373   0.625005548351221   1.0000000
B2   B   0.222299827215048   0.444406526105805   0.624944364735217   1.0000000
B2   B   0.555555555555557   0.444444444444443   0.623552281147559   1.0000000
B2   B   0.722195371975236   0.944450687828727   0.625008219202690   1.0000000
B2   B   0.888773365557422   0.444406526105805   0.624944364735217   1.0000000
B2   B   0.055509767645620   0.444352868624568   0.124995502468274   1.0000000
B2   B   0.222316030508660   0.944549928339373   0.124994451648779   1.0000000
B2   B   0.555647131375432   0.944490232354380   0.124995502468274   1.0000000
B2   B   0.389018354016351   0.444335863259142   0.125153556218528   1.0000000
B2   B   0.888921982520155   0.944450687828727   0.124991780797310   1.0000000
B2   B   0.721984175909455   0.444335863259142   0.125153556218528   1.0000000
B2   B   0.222316030508660   0.611099435502622   0.625005548351221   1.0000000
B2   B   0.055549312171273   0.111078017479845   0.625008219202690   1.0000000
B2   B   0.555664136740858   0.610981645983649   0.624846443781472   1.0000000
B2   B   0.388954616669986   0.111242566673316   0.624924154782140   1.0000000
B2   B   0.888757433326684   0.611045383330014   0.624924154782140   1.0000000
B2   B   0.055450071660627   0.611099435502622   0.124994451648779   1.0000000
B2   B   0.722195371975236   0.111078017479845   0.625008219202690   1.0000000
B2   B   0.222299827215048   0.111226634442578   0.125055635264783   1.0000000
B2   B   0.388954616669986   0.611045383330014   0.125075845217861   1.0000000
B2   B   0.721984175909455   0.610981645983649   0.125153556218528   1.0000000
B2   B   0.555593473894194   0.111226634442578   0.125055635264783   1.0000000
B2   B   0.388954616669986   0.611045383330014   0.624924154782140   1.0000000
B2   B   0.888888888888886   0.111111111111114   0.125001341351873   1.0000000
B2   B   0.222222222222221   0.777777777777779   0.624998758221030   1.0000000
B2   B   0.055549312171273   0.277804628024764   0.625008219202690   1.0000000
B2   B   0.389018354016351   0.278015824090545   0.624846443781472   1.0000000
B2   B   0.555593473894194   0.777700172784952   0.624944364735217   1.0000000
B2   B   0.888773365557422   0.777700172784952   0.624944364735217   1.0000000
B2   B   0.722141298444507   0.277858701555493   0.624943682594194   1.0000000
B2   B   0.055450071660627   0.777683969491340   0.124994451648779   1.0000000
B2   B   0.388900564497377   0.777683969491340   0.124994451648779   1.0000000
B2   B   0.222384069777650   0.277858701555493   0.125056317405806   1.0000000
B2   B   0.722141298444507   0.777615930222350   0.125056317405806   1.0000000
B2   B   0.555664136740858   0.278015824090545   0.125153556218528   1.0000000
B2   B   0.888921982520155   0.277804628024764   0.124991780797310   1.0000000
B2   B   0.055509767645620   0.444352868624568   0.625004497531726   1.0000000
B2   B   0.222316030508660   0.944549928339373   0.625005548351221   1.0000000
B2   B   0.555647131375432   0.944490232354380   0.625004497531726   1.0000000
B2   B   0.389018354016351   0.444335863259142   0.624846443781472   1.0000000
B2   B   0.888921982520155   0.944450687828727   0.625008219202690   1.0000000
B2   B   0.055509767645620   0.944490232354380   0.124995502468274   1.0000000
B2   B   0.721984175909455   0.444335863259142   0.624846443781472   1.0000000
B2   B   0.388900564497377   0.944549928339373   0.124994451648779   1.0000000
B2   B   0.222299827215048   0.444406526105805   0.125055635264783   1.0000000
B2   B   0.222316030508660   0.611099435502622   0.124994451648779   1.0000000
B2   B   0.555555555555557   0.444444444444443   0.126447718852441   1.0000000
B2   B   0.722195371975236   0.944450687828727   0.124991780797310   1.0000000
B2   B   0.888773365557422   0.444406526105805   0.125055635264783   1.0000000
B2   B   0.055450071660627   0.611099435502622   0.625005548351221   1.0000000
B2   B   0.222299827215048   0.111226634442578   0.624944364735217   1.0000000
B2   B   0.721984175909455   0.610981645983649   0.624846443781472   1.0000000
B2   B   0.555593473894194   0.111226634442578   0.624944364735217   1.0000000
B2   B   0.888888888888886   0.111111111111114   0.624998658648127   1.0000000


