data_1
_audit_creation_method   'vasp2cif'
_cell_length_a    17.52789999999977
_cell_length_b    17.52789999999977
_cell_length_c    15.0
_cell_angle_alpha    90.0
_cell_angle_beta    90.0
_cell_angle_gamma    119.99999999999916

_symmetry_space_group_name_H-M    'P 1'
loop_
_atom_site_label
_atom_site_type_symbol
_atom_site_fract_x
_atom_site_fract_y
_atom_site_fract_z
_atom_site_occupancy
B2   B   0.904156668448920   0.950839817661803   0.118824820506446   1.0000000
B2   B   0.904289316825854   0.093733264889315   0.118652184860830   1.0000000
B2   B   0.904538672707055   0.236666339217829   0.118432562829856   1.0000000
B2   B   0.904651728756805   0.379476997438137   0.118096503386780   1.0000000
B2   B   0.904557366105776   0.522219125019306   0.118709550418623   1.0000000
B2   B   0.904190408605779   0.664912201663966   0.118897336644960   1.0000000
B2   B   0.903932272513020   0.807754562413648   0.118428491983395   1.0000000
B2   B   0.047042194771685   0.950811444667645   0.121233943986713   1.0000000
B2   B   0.047073691774376   0.093699016452632   0.121844799376850   1.0000000
B2   B   0.047364296317693   0.236801910244608   0.121484308375902   1.0000000
B2   B   0.047479113342352   0.379597159201956   0.119356771066656   1.0000000
B2   B   0.047517889227163   0.522319361439119   0.118743415804954   1.0000000
B2   B   0.047353522909264   0.665049913688982   0.119534676346306   1.0000000
B2   B   0.047062877156966   0.807861643181520   0.120478713065438   1.0000000
B2   B   0.190058359183181   0.950812811778399   0.120887504911146   1.0000000
B2   B   0.190175399026921   0.093875614464099   0.121467310257434   1.0000000
B2   B   0.189876178230955   0.236577194329238   0.121829224533474   1.0000000
B2   B   0.190467613891605   0.379974644130308   0.117766557273160   1.0000000
B2   B   0.190470182718816   0.522298062651476   0.114064772634385   1.0000000
B2   B   0.190452484930255   0.665051945260614   0.116158898709754   1.0000000
B2   B   0.190150837517096   0.807880057400373   0.118866477321376   1.0000000
B2   B   0.333007145350083   0.950754998714760   0.118861445551914   1.0000000
B2   B   0.333063374882093   0.093702007786304   0.118813788278154   1.0000000
B2   B   0.333218490096952   0.236764415807345   0.115992740522045   1.0000000
B2   B   0.331898463100085   0.380581306785289   0.109756628136235   1.0000000
B2   B   0.333570780789773   0.521485582905224   0.095646220927439   1.0000000
B2   B   0.333197224149922   0.664769681266957   0.103085444661781   1.0000000
B2   B   0.333103816102890   0.807837852054156   0.113886884515160   1.0000000
B2   B   0.475877093442597   0.950937731037667   0.116593913272714   1.0000000
B2   B   0.475929557095528   0.093620416917518   0.117002228516553   1.0000000
B2   B   0.475984052544988   0.236213611440259   0.114092314417942   1.0000000
B2   B   0.476220599270600   0.378155395850525   0.113061950348598   1.0000000
B2   B   0.534738060492923   0.639462067003934   0.007694245467056   1.0000000
B2   B   0.472937670734994   0.669610036907817   0.061857275698163   1.0000000
B2   B   0.475896581301503   0.808584599358983   0.105533543700986   1.0000000
B2   B   0.618576815439203   0.950701217154818   0.113584622016667   1.0000000
B2   B   0.618796659500049   0.093657464094797   0.116857334287452   1.0000000
B2   B   0.618946684231854   0.236461253355502   0.114454879807942   1.0000000
B2   B   0.619341107942654   0.379271365402171   0.107076725209327   1.0000000
B2   B   0.623428615751888   0.522906908626505   0.078384956684624   1.0000000
B2   B   0.625525988069223   0.669906519421747   0.065995289795725   1.0000000
B2   B   0.618110632111955   0.807691506545124   0.098923497365697   1.0000000
B2   B   0.761157089802974   0.950610474801180   0.114415254825422   1.0000000
B2   B   0.761562733893982   0.093710860127501   0.116471598015457   1.0000000
B2   B   0.761755222574090   0.236563457050212   0.116590736456215   1.0000000
B2   B   0.761878778874834   0.379294159399827   0.114535391894523   1.0000000
B2   B   0.761853660494814   0.522038179376588   0.110507811126670   1.0000000
B2   B   0.761353761284429   0.664833506403999   0.108472306668438   1.0000000
B2   B   0.761267931763911   0.808133114343513   0.110702498773584   1.0000000
In2   In   0.490564284339684   0.499180412605957   0.009516963904434   1.0000000
N2   N   0.951918064928732   0.903214171737746   0.119875716774362   1.0000000
N2   N   0.951904725307358   0.046119117432516   0.119882715533027   1.0000000
N2   N   0.951946561002093   0.188981965844386   0.119701710864810   1.0000000
N2   N   0.952032477342562   0.331834539231127   0.118791930680744   1.0000000
N2   N   0.952125070820150   0.474646633339469   0.119023121236596   1.0000000
N2   N   0.952092989469031   0.617438602211495   0.119904122051776   1.0000000
N2   N   0.951931649040240   0.760262167244340   0.120094485306406   1.0000000
N2   N   0.094774917053254   0.903176109655139   0.121122647123873   1.0000000
N2   N   0.094776922817972   0.046022230715878   0.122294250462339   1.0000000
N2   N   0.094445808311095   0.188623402545877   0.122911753758120   1.0000000
N2   N   0.094640436019756   0.331842033746545   0.120887648538552   1.0000000
N2   N   0.094780886811746   0.474714669392119   0.118317113678411   1.0000000
N2   N   0.094926250906138   0.617563715101360   0.118602483856791   1.0000000
N2   N   0.094817892668529   0.760355702342291   0.119773115440760   1.0000000
N2   N   0.237666544432469   0.903223858067865   0.119909112179397   1.0000000
N2   N   0.237745009804121   0.046026623420701   0.120972239920318   1.0000000
N2   N   0.237752367087970   0.188797598013781   0.120298741704433   1.0000000
N2   N   0.236463703173024   0.330782338533613   0.120121206879637   1.0000000
N2   N   0.237410291364065   0.474855981056628   0.111167099797737   1.0000000
N2   N   0.237670867084275   0.617650898953610   0.112596436314416   1.0000000
N2   N   0.237649261164601   0.760462134147683   0.116442628569184   1.0000000
N2   N   0.380571250890131   0.903380387360628   0.117026188954578   1.0000000
N2   N   0.380662358436722   0.046079922357818   0.118732556486779   1.0000000
N2   N   0.380813898963760   0.188806868114961   0.116239264907837   1.0000000
N2   N   0.381230397115427   0.331826809302441   0.111965748807907   1.0000000
N2   N   0.375881652153052   0.470910520764933   0.093508920404457   1.0000000
N2   N   0.379440272198013   0.618002487460486   0.086970282612844   1.0000000
N2   N   0.380320620077776   0.760751456406694   0.107085820209903   1.0000000
N2   N   0.523507499485436   0.903923304413638   0.113932198776021   1.0000000
N2   N   0.523598467426201   0.046292895306342   0.117590986448170   1.0000000
N2   N   0.523698018665828   0.188749771771826   0.114567351221573   1.0000000
N2   N   0.524031632168584   0.331494978474949   0.111830970467956   1.0000000
N2   N   0.522925548651124   0.762519712667490   0.092132228648910   1.0000000
N2   N   0.666132890560945   0.903207413629227   0.110592600514056   1.0000000
N2   N   0.666426624426666   0.046242349689904   0.116231967971525   1.0000000
N2   N   0.666544334051591   0.188958015200531   0.116368091852332   1.0000000
N2   N   0.666724479262978   0.331572875813293   0.111980726897938   1.0000000
N2   N   0.667220168155792   0.473949227476183   0.098870992870175   1.0000000
N2   N   0.668398501902778   0.617883337581204   0.089647663703424   1.0000000
N2   N   0.667934329745705   0.761751598026112   0.097621804527764   1.0000000
N2   N   0.809340770511551   0.903615019842577   0.116179617152786   1.0000000
N2   N   0.809105236175539   0.046163100894644   0.116503690378194   1.0000000
N2   N   0.809279435868216   0.189020530375164   0.117139010922890   1.0000000
N2   N   0.809410246111620   0.331737798089814   0.116562540015623   1.0000000
N2   N   0.809421347517263   0.474408688516567   0.116058079893860   1.0000000
N2   N   0.809304068883208   0.617193830280813   0.114832214144078   1.0000000
N2   N   0.809252670709940   0.760344993893189   0.113955039070308   1.0000000


