data_1
_audit_creation_method   'vasp2cif'
_cell_length_a    17.52789999999977
_cell_length_b    17.52789999999977
_cell_length_c    15.0
_cell_angle_alpha    90.0
_cell_angle_beta    90.0
_cell_angle_gamma    119.99999999999916

_symmetry_space_group_name_H-M    'P 1'
loop_
_atom_site_label
_atom_site_type_symbol
_atom_site_fract_x
_atom_site_fract_y
_atom_site_fract_z
_atom_site_occupancy
B2   B   0.904766918862614   0.952399441067520   0.111026876030023   1.0000000
B2   B   0.904751419596294   0.095250601599703   0.111048082254537   1.0000000
B2   B   0.904751419596294   0.238072124322590   0.111048082254537   1.0000000
B2   B   0.904766918862614   0.380940495677095   0.111026876030023   1.0000000
B2   B   0.904736548828285   0.523805303204252   0.111035593006121   1.0000000
B2   B   0.904844770210812   0.666708894046904   0.111048147733802   1.0000000
B2   B   0.904736548828285   0.809504263507037   0.111035593006121   1.0000000
B2   B   0.047614240711236   0.952387780484767   0.111026576810392   1.0000000
B2   B   0.047602580128483   0.095235102333382   0.111026876030023   1.0000000
B2   B   0.047574107079944   0.238073562480973   0.111028885336384   1.0000000
B2   B   0.047602580128483   0.380940495677095   0.111026876030023   1.0000000
B2   B   0.047614240711236   0.523801189665468   0.111026576810392   1.0000000
B2   B   0.047636381192448   0.666674514459000   0.111035681701257   1.0000000
B2   B   0.047636381192448   0.809536596172448   0.111035681701257   1.0000000
B2   B   0.190465425023556   0.952365640003555   0.111035681701257   1.0000000
B2   B   0.190497757688966   0.095265472367711   0.111035593006121   1.0000000
B2   B   0.190362871127295   0.238044166780894   0.111023416558457   1.0000000
B2   B   0.190362871127295   0.380891722228403   0.111023416558457   1.0000000
B2   B   0.190497757688966   0.523805303204252   0.111035593006121   1.0000000
B2   B   0.190465425023556   0.666674514459000   0.111035681701257   1.0000000
B2   B   0.190476437651000   0.809525583545003   0.111020736093813   1.0000000
B2   B   0.333327506737998   0.952365640003555   0.111035681701257   1.0000000
B2   B   0.333293127150094   0.095157250985184   0.111048147733802   1.0000000
B2   B   0.333276790437795   0.237880858293464   0.111036680982013   1.0000000
B2   B   0.332857960357211   0.380715489119109   0.111008463964917   1.0000000
B2   B   0.333276790437795   0.523968950026332   0.111036680982013   1.0000000
B2   B   0.333293127150094   0.666708894046904   0.111048147733802   1.0000000
B2   B   0.333327506737998   0.809536596172448   0.111035681701257   1.0000000
B2   B   0.476200831531537   0.952387780484767   0.111026576810392   1.0000000
B2   B   0.476196717992746   0.095265472367711   0.111035593006121   1.0000000
B2   B   0.476033071170666   0.237880858293464   0.111036680982013   1.0000000
B2   B   0.474840349733681   0.378251696152365   0.111056758645891   1.0000000
B2   B   0.474840349733681   0.525161671463317   0.111056758645891   1.0000000
B2   B   0.476033071170666   0.666725230759204   0.111036680982013   1.0000000
B2   B   0.476196717992746   0.809504263507037   0.111035593006121   1.0000000
B2   B   0.619061525518908   0.952399441067520   0.111026876030023   1.0000000
B2   B   0.619061525518908   0.095235102333382   0.111026876030023   1.0000000
B2   B   0.619110298967600   0.238044166780894   0.111023416558457   1.0000000
B2   B   0.619286532076894   0.380715489119109   0.111008463964917   1.0000000
B2   B   0.621750325043638   0.525161671463317   0.111056758645891   1.0000000
B2   B   0.619286532076894   0.667144060839787   0.111008463964917   1.0000000
B2   B   0.619110298967600   0.809639150068708   0.111023416558457   1.0000000
B2   B   0.761928458715030   0.952427914116059   0.111028885336384   1.0000000
B2   B   0.761929896873414   0.095250601599703   0.111048082254537   1.0000000
B2   B   0.761928458715030   0.238073562480973   0.111028885336384   1.0000000
B2   B   0.761957854415110   0.380891722228403   0.111023416558457   1.0000000
B2   B   0.762121162902540   0.523968950026332   0.111036680982013   1.0000000
B2   B   0.762121162902540   0.666725230759204   0.111036680982013   1.0000000
B2   B   0.761957854415110   0.809639150068708   0.111023416558457   1.0000000
N2   N   0.952341710354914   0.904709335784088   0.111001746022932   1.0000000
N2   N   0.952395498431358   0.047605903486648   0.111009647491468   1.0000000
N2   N   0.952367564128138   0.190468579440573   0.111015484210116   1.0000000
N2   N   0.952395498431358   0.333359189697717   0.111009647491468   1.0000000
N2   N   0.952341710354914   0.476203680879822   0.111001746022932   1.0000000
N2   N   0.952302757379780   0.619023314105280   0.111011785346608   1.0000000
N2   N   0.952302757379780   0.761850749584490   0.111011785346608   1.0000000
N2   N   0.095229340176860   0.904772061741138   0.111000009817108   1.0000000
N2   N   0.095292066133911   0.047659691563092   0.111001746022932   1.0000000
N2   N   0.095253171674068   0.190458504272233   0.111007547345065   1.0000000
N2   N   0.095253171674068   0.333365973710838   0.111007547345065   1.0000000
N2   N   0.095292066133911   0.476203680879822   0.111001746022932   1.0000000
N2   N   0.095229340176860   0.619030296301716   0.111000009817108   1.0000000
N2   N   0.095211697506190   0.761892357686102   0.111001769080793   1.0000000
N2   N   0.238109044231903   0.904789704411809   0.111001769080793   1.0000000
N2   N   0.238150652333508   0.047698644538226   0.111011785346608   1.0000000
N2   N   0.238330654888492   0.190683898784772   0.111010432311958   1.0000000
N2   N   0.238172200293645   0.333371753301317   0.110993813479235   1.0000000
N2   N   0.238330654888492   0.476218062412723   0.111010432311958   1.0000000
N2   N   0.238150652333508   0.619023314105280   0.111011785346608   1.0000000
N2   N   0.238109044231903   0.761892357686102   0.111001769080793   1.0000000
N2   N   0.380971105616283   0.904772061741138   0.111000009817108   1.0000000
N2   N   0.380978087812719   0.047698644538226   0.111011785346608   1.0000000
N2   N   0.381054926589093   0.190679757570192   0.111017272701528   1.0000000
N2   N   0.381503963452702   0.333954947933330   0.110999631176138   1.0000000
N2   N   0.381503963452702   0.476120321828368   0.110999631176138   1.0000000
N2   N   0.381054926589093   0.618946475328906   0.111017272701528   1.0000000
N2   N   0.380978087812719   0.761850749584490   0.111011785346608   1.0000000
N2   N   0.523797721037175   0.904709335784088   0.111001746022932   1.0000000
N2   N   0.523797721037175   0.047659691563092   0.111001746022932   1.0000000
N2   N   0.523783339504273   0.190683898784772   0.111010432311958   1.0000000
N2   N   0.523881080088629   0.333954947933330   0.110999631176138   1.0000000
N2   N   0.523881080088629   0.618497438465297   0.110999631176138   1.0000000
N2   N   0.523783339504273   0.761670747029513   0.111010432311958   1.0000000
N2   N   0.666635428206159   0.904748230243930   0.111007547345065   1.0000000
N2   N   0.666642212219280   0.047605903486648   0.111009647491468   1.0000000
N2   N   0.666635428206159   0.190458504272233   0.111007547345065   1.0000000
N2   N   0.666629648615680   0.333371753301317   0.110993813479235   1.0000000
N2   N   0.666046453983667   0.476120321828368   0.110999631176138   1.0000000
N2   N   0.666046453983667   0.618497438465297   0.110999631176138   1.0000000
N2   N   0.666629648615680   0.761829201624361   0.110993813479235   1.0000000
N2   N   0.809542897645765   0.904748230243930   0.111007547345065   1.0000000
N2   N   0.809532822477426   0.047633837789868   0.111015484210116   1.0000000
N2   N   0.809532822477426   0.190468579440573   0.111015484210116   1.0000000
N2   N   0.809542897645765   0.333365973710838   0.111007547345065   1.0000000
N2   N   0.809317503133227   0.476218062412723   0.111010432311958   1.0000000
N2   N   0.809321644347814   0.618946475328906   0.111017272701528   1.0000000
N2   N   0.809317503133227   0.761670747029513   0.111010432311958   1.0000000
O2   O   0.523810499174999   0.476190902741997   0.111038186444244   1.0000000


