data_1
_audit_creation_method   'vasp2cif'
_cell_length_a    17.52789999999977
_cell_length_b    17.52789999999977
_cell_length_c    15.0
_cell_angle_alpha    90.0
_cell_angle_beta    90.0
_cell_angle_gamma    119.99999999999916

_symmetry_space_group_name_H-M    'P 1'
loop_
_atom_site_label
_atom_site_type_symbol
_atom_site_fract_x
_atom_site_fract_y
_atom_site_fract_z
_atom_site_occupancy
B2   B   0.905907699110003   0.953899622802283   0.107855079332587   1.0000000
B2   B   0.905409038246598   0.096212677457229   0.107857236197073   1.0000000
B2   B   0.905003081349533   0.238615124616162   0.108865162115484   1.0000000
B2   B   0.904358688034753   0.381021496076537   0.108846259621151   1.0000000
B2   B   0.903215366158724   0.523544945985096   0.108579762669940   1.0000000
B2   B   0.903640620867031   0.666498362089760   0.109872409557516   1.0000000
B2   B   0.905669654206210   0.810827653878895   0.110690788677929   1.0000000
B2   B   0.047919230744614   0.952594470472175   0.108387473614230   1.0000000
B2   B   0.047945824806270   0.095471796043400   0.107707726344471   1.0000000
B2   B   0.047804673758484   0.238341893922921   0.107991389719519   1.0000000
B2   B   0.047403949670342   0.381134395091873   0.108587833913817   1.0000000
B2   B   0.046630690463520   0.523679635854586   0.108578693304609   1.0000000
B2   B   0.046565991959235   0.666194404127875   0.108547318220606   1.0000000
B2   B   0.047043767806218   0.809085799117759   0.109212448297182   1.0000000
B2   B   0.189788652924229   0.951374209868466   0.109369799618034   1.0000000
B2   B   0.190314538037839   0.094563049827171   0.108530603042119   1.0000000
B2   B   0.189912379311100   0.237045421179983   0.107587593381008   1.0000000
B2   B   0.190127490316305   0.380679493127171   0.108804034339417   1.0000000
B2   B   0.189664013573874   0.523805115458916   0.109416654059003   1.0000000
B2   B   0.189800933352663   0.666308321358303   0.109262239965410   1.0000000
B2   B   0.189675470085094   0.808750293551221   0.109280296248756   1.0000000
B2   B   0.332518367141309   0.951147539340373   0.109323711894568   1.0000000
B2   B   0.332248792818915   0.093268019043972   0.108551696954571   1.0000000
B2   B   0.332978038414592   0.236574811376323   0.107924493882116   1.0000000
B2   B   0.331396897097039   0.378114800083300   0.112227372548007   1.0000000
B2   B   0.331855835674674   0.523634833236445   0.116434923974184   1.0000000
B2   B   0.333139171047930   0.666693688349217   0.112735506334060   1.0000000
B2   B   0.332718815103093   0.809011489720248   0.109538057890001   1.0000000
B2   B   0.475728715775401   0.951959142402137   0.108598991085695   1.0000000
B2   B   0.475370008215544   0.093187888563134   0.108436155459084   1.0000000
B2   B   0.474476280067287   0.233649926189621   0.105183412776615   1.0000000
B2   B   0.477510545213764   0.376903577733642   0.104526191269118   1.0000000
B2   B   0.476886993357071   0.670266403943790   0.123617747353648   1.0000000
B2   B   0.476032654798443   0.810651105993078   0.110474738050175   1.0000000
B2   B   0.619250063043031   0.953564859569343   0.108060134740295   1.0000000
B2   B   0.618879466281550   0.094850579888951   0.108483448247695   1.0000000
B2   B   0.618313314175693   0.236001936731112   0.107251178540860   1.0000000
B2   B   0.616056263234119   0.375935965019185   0.105119366391356   1.0000000
B2   B   0.622660852849682   0.675212616352618   0.134592894489466   1.0000000
B2   B   0.619901762140200   0.812871626802475   0.114031435295911   1.0000000
B2   B   0.762851087019019   0.954264039255873   0.108113133840990   1.0000000
B2   B   0.762311080684747   0.096066505688509   0.108324301842739   1.0000000
B2   B   0.761889693346444   0.238103408357236   0.108802013711546   1.0000000
B2   B   0.761111107354994   0.380276740684413   0.107966743001807   1.0000000
B2   B   0.759515610645689   0.524206221468800   0.110258792327026   1.0000000
B2   B   0.763950429516493   0.669252488246147   0.123265252696830   1.0000000
B2   B   0.764106942378038   0.813070773842890   0.114185534619873   1.0000000
Si2   Si   0.482116877370515   0.520064468049270   0.156749903126573   1.0000000
N2   N   0.953027123929458   0.905789941958822   0.108264487802923   1.0000000
N2   N   0.953084124886578   0.048685096955099   0.107504475369878   1.0000000
N2   N   0.952787031504540   0.191193606070907   0.108364279779040   1.0000000
N2   N   0.952328183608297   0.333700024846891   0.108951809331174   1.0000000
N2   N   0.951327867162866   0.476170943465623   0.108602435172257   1.0000000
N2   N   0.951161495067033   0.618770092069785   0.108310718693690   1.0000000
N2   N   0.951894073341561   0.761867026447979   0.109923213327143   1.0000000
N2   N   0.094757117463326   0.904243987985762   0.109085064150639   1.0000000
N2   N   0.095332644055934   0.047632848156305   0.108156504502246   1.0000000
N2   N   0.095118010567785   0.190384722666284   0.107537538405897   1.0000000
N2   N   0.095149406215311   0.333518215952525   0.108206174994783   1.0000000
N2   N   0.094560738900143   0.476275022761870   0.108567403612222   1.0000000
N2   N   0.094449504850345   0.618782654254769   0.108627445943534   1.0000000
N2   N   0.094454272695018   0.761324048643386   0.108958402036850   1.0000000
N2   N   0.237338786667939   0.903765415907576   0.109558985689215   1.0000000
N2   N   0.237277784931530   0.046350670644423   0.109162123460117   1.0000000
N2   N   0.237778366690496   0.189662724032639   0.108194207404551   1.0000000
N2   N   0.236936614862863   0.331960562015944   0.108120537144931   1.0000000
N2   N   0.237211808609380   0.476147241789565   0.110002606939991   1.0000000
N2   N   0.237781988474154   0.618958981486957   0.110103165457660   1.0000000
N2   N   0.237464762230579   0.761359630611235   0.109380025625912   1.0000000
N2   N   0.380442066911835   0.904010995930511   0.109108114548579   1.0000000
N2   N   0.380132887063644   0.046000986017223   0.108969624868801   1.0000000
N2   N   0.379578349363440   0.187933321707038   0.107103139170051   1.0000000
N2   N   0.380685396194770   0.331777794364231   0.108699551416983   1.0000000
N2   N   0.375972028305766   0.472815848794295   0.121805257532968   1.0000000
N2   N   0.381224295727824   0.619383348286633   0.118501745831283   1.0000000
N2   N   0.380700648561426   0.761874917991679   0.110602011292868   1.0000000
N2   N   0.523898973433782   0.905385791290522   0.108215934035450   1.0000000
N2   N   0.523580777433325   0.046675929130340   0.108684991473009   1.0000000
N2   N   0.523086936068615   0.187638061967812   0.107120308206900   1.0000000
N2   N   0.521933517157241   0.327147065752136   0.101816705981014   1.0000000
N2   N   0.530013952155386   0.468849662132700   0.106098954896080   1.0000000
N2   N   0.528681679511738   0.628880577176297   0.139019140966073   1.0000000
N2   N   0.524399193645669   0.764478964298734   0.114478546714760   1.0000000
N2   N   0.667583344472673   0.907154495694663   0.108601377643421   1.0000000
N2   N   0.667066957422505   0.048271489302944   0.108120947116786   1.0000000
N2   N   0.666688345452456   0.189677162963902   0.108507776186932   1.0000000
N2   N   0.666145436735290   0.330789630155399   0.106441654758343   1.0000000
N2   N   0.666298842795010   0.468258233727105   0.108643939177984   1.0000000
N2   N   0.675177941643861   0.635959261770682   0.148316223030842   1.0000000
N2   N   0.669530685162797   0.768050504010635   0.119379646588758   1.0000000
N2   N   0.811092055587747   0.907368839021916   0.108476781463544   1.0000000
N2   N   0.810315283033211   0.049023356794786   0.107752755487981   1.0000000
N2   N   0.809879925029149   0.191022825811512   0.108967427352035   1.0000000
N2   N   0.809297028212521   0.333235421773360   0.108713195838003   1.0000000
N2   N   0.807681187365961   0.475656056038145   0.108671695597816   1.0000000
N2   N   0.808136044317072   0.619255382905631   0.112902530999024   1.0000000
N2   N   0.811012361520205   0.764700036103185   0.115026328715817   1.0000000


