data_1
_audit_creation_method   'vasp2cif'
_cell_length_a    14.93631414619966
_cell_length_b    14.936314146199727
_cell_length_c    13.341276283792837
_cell_angle_alpha    90.0
_cell_angle_beta    90.0
_cell_angle_gamma    119.99999999999984

_symmetry_space_group_name_H-M    'P 1'
loop_
_atom_site_label
_atom_site_type_symbol
_atom_site_fract_x
_atom_site_fract_y
_atom_site_fract_z
_atom_site_occupancy
O2   O   0.427560463384239   0.380446898358784   0.375000000000000   1.0000000
O2   O   0.585133598133745   0.459233465733537   0.375000000000000   1.0000000
N2   N   0.111077307578682   0.055548921650009   0.125016825546511   1.0000000
N2   N   0.611108919454893   0.555535912734083   0.125492286334229   1.0000000
N2   N   0.444427548670543   0.055563730338061   0.125027436097099   1.0000000
N2   N   0.944445273428949   0.555551787992389   0.125020664436893   1.0000000
N2   N   0.777735701897918   0.055534517615627   0.125004631353275   1.0000000
N2   N   0.111105857187881   0.722219595260605   0.624990123254409   1.0000000
N2   N   0.444427548670543   0.722197151665817   0.624972563902901   1.0000000
N2   N   0.277725799755460   0.222217763544979   0.624922773841799   1.0000000
N2   N   0.777775323932384   0.722225184644972   0.625028922628987   1.0000000
N2   N   0.611095240578392   0.222225475802678   0.624941538025996   1.0000000
N2   N   0.944395346909665   0.222197019620078   0.625014269554473   1.0000000
N2   N   0.277767858614579   0.722210262425850   0.125005353262704   1.0000000
N2   N   0.111036946137205   0.222185139735267   0.124954406916400   1.0000000
N2   N   0.444440821799926   0.222244614802488   0.125138744509116   1.0000000
N2   N   0.611095240578392   0.722203098109042   0.125058461974004   1.0000000
N2   N   0.944445273428949   0.722226818769894   0.125020664436893   1.0000000
N2   N   0.777752427917619   0.222208787631393   0.125001179312936   1.0000000
N2   N   0.111102219444965   0.888894195469024   0.624984578799536   1.0000000
N2   N   0.444424686587652   0.888879009960491   0.624983140153368   1.0000000
N2   N   0.277725799755460   0.388841369543809   0.624922773841799   1.0000000
N2   N   0.611108919454893   0.388906340054137   0.624507713665771   1.0000000
N2   N   0.777752427917619   0.888876973619555   0.624998820687065   1.0000000
N2   N   0.944430659420883   0.388875352781942   0.624995266744475   1.0000000
N2   N   0.111077307578682   0.388861719262001   0.125016825546511   1.0000000
N2   N   0.277767858614579   0.888890929522058   0.125005353262704   1.0000000
N2   N   0.611080029077849   0.888870122218125   0.125018451228610   1.0000000
N2   N   0.444413779498635   0.388873556415982   0.124858290624336   1.0000000
N2   N   0.944430659420883   0.888888639972270   0.125004733255525   1.0000000
N2   N   0.777775323932384   0.388883472620740   0.124971077371013   1.0000000
N2   N   0.277763835294405   0.555529431519005   0.624981841232223   1.0000000
N2   N   0.111077307578682   0.055548921650009   0.624983174453489   1.0000000
N2   N   0.611108919454893   0.555535912734083   0.624507713665771   1.0000000
N2   N   0.444427548670543   0.055563730338061   0.624972563902901   1.0000000
N2   N   0.944445273428949   0.555551787992389   0.624979335563107   1.0000000
N2   N   0.111102219444965   0.555541357309270   0.125015421200464   1.0000000
N2   N   0.777735701897918   0.055534517615627   0.624995368646724   1.0000000
N2   N   0.277763835294405   0.055567737108736   0.125018158767777   1.0000000
N2   N   0.444440821799926   0.555529540330772   0.125138744509116   1.0000000
N2   N   0.777784182667182   0.555558758000259   0.125035874630624   1.0000000
N2   N   0.611080029077849   0.055543240193053   0.125018451228610   1.0000000
N2   N   0.444440821799926   0.555529540330772   0.624861255490884   1.0000000
N2   N   0.944395346909665   0.055531660622923   0.124985730445527   1.0000000
N2   N   0.277767858614579   0.722210262425850   0.624994646737296   1.0000000
N2   N   0.111036946137205   0.222185139735267   0.625045593083600   1.0000000
N2   N   0.444440821799926   0.222244614802488   0.624861255490884   1.0000000
N2   N   0.611095240578392   0.722203098109042   0.624941538025996   1.0000000
N2   N   0.944445273428949   0.722226818769894   0.624979335563107   1.0000000
N2   N   0.777752427917619   0.222208787631393   0.624998820687065   1.0000000
N2   N   0.111105857187881   0.722219595260605   0.125009876745592   1.0000000
N2   N   0.444427548670543   0.722197151665817   0.125027436097099   1.0000000
N2   N   0.277725799755460   0.222217763544979   0.125077226158201   1.0000000
N2   N   0.777775323932384   0.722225184644972   0.124971077371013   1.0000000
N2   N   0.611095240578392   0.222225475802678   0.125058461974004   1.0000000
N2   N   0.944395346909665   0.222197019620078   0.124985730445527   1.0000000
N2   N   0.111077307578682   0.388861719262001   0.624983174453489   1.0000000
N2   N   0.277767858614579   0.888890929522058   0.624994646737296   1.0000000
N2   N   0.611080029077849   0.888870122218125   0.624981548771389   1.0000000
N2   N   0.444413779498635   0.388873556415982   0.625141709375664   1.0000000
N2   N   0.944430659420883   0.888888639972270   0.624995266744475   1.0000000
N2   N   0.111102219444965   0.888894195469024   0.125015421200464   1.0000000
N2   N   0.777775323932384   0.388883472620740   0.625028922628987   1.0000000
N2   N   0.444424686587652   0.888879009960491   0.125016859846632   1.0000000
N2   N   0.277725799755460   0.388841369543809   0.125077226158201   1.0000000
N2   N   0.277763835294405   0.555529431519005   0.125018158767777   1.0000000
N2   N   0.611108919454893   0.388906340054137   0.125492286334229   1.0000000
N2   N   0.777752427917619   0.888876973619555   0.125001179312936   1.0000000
N2   N   0.944430659420883   0.388875352781942   0.125004733255525   1.0000000
N2   N   0.111102219444965   0.555541357309270   0.624984578799536   1.0000000
N2   N   0.277763835294405   0.055567737108736   0.624981841232223   1.0000000
N2   N   0.777784182667182   0.555558758000259   0.624964125369376   1.0000000
N2   N   0.611080029077849   0.055543240193053   0.624981548771389   1.0000000
N2   N   0.944395346909665   0.055531660622923   0.625014269554473   1.0000000
N2   N   0.051762068455502   0.108824013371169   0.375000000000000   1.0000000
N2   N   0.556124299720330   0.606274848873897   0.375000000000000   1.0000000
N2   N   0.388811924112174   0.114866798419826   0.375000000000000   1.0000000
N2   N   0.894172499366987   0.613752916350165   0.375000000000000   1.0000000
N2   N   0.720578428284635   0.110734223370606   0.375000000000000   1.0000000
N2   N   0.055549677272882   0.777775375397801   0.875000000000000   1.0000000
N2   N   0.388885585211931   0.777776626222699   0.875000000000000   1.0000000
N2   N   0.222217208345622   0.277775270839479   0.875000000000000   1.0000000
N2   N   0.722218031305957   0.777775470342735   0.875000000000000   1.0000000
N2   N   0.555551581324453   0.277777430001830   0.875000000000000   1.0000000
N2   N   0.888886364850516   0.277777945775140   0.875000000000000   1.0000000
N2   N   0.224206864710387   0.778770099021862   0.375000000000000   1.0000000
N2   N   0.051762068455502   0.276271388417668   0.375000000000000   1.0000000
N2   N   0.377238987834360   0.272955407092841   0.375000000000000   1.0000000
N2   N   0.555111740930810   0.775251657218897   0.375000000000000   1.0000000
N2   N   0.892314703544598   0.780047895620867   0.375000000000000   1.0000000
N2   N   0.722067987841542   0.278643861013549   0.375000000000000   1.0000000
N2   N   0.055549897570032   0.944440803346556   0.875000000000000   1.0000000
N2   N   0.388885585211931   0.944442292322567   0.875000000000000   1.0000000
N2   N   0.222216436845078   0.444442468553917   0.875000000000000   1.0000000
N2   N   0.555552470496126   0.444442901914727   0.875000000000000   1.0000000
N2   N   0.722216502538543   0.944441489565542   0.875000000000000   1.0000000
N2   N   0.888886416092523   0.444443045723131   0.875000000000000   1.0000000
N2   N   0.055419813135581   0.444457896909061   0.375000000000000   1.0000000
N2   N   0.223383448144083   0.945685901910491   0.375000000000000   1.0000000
N2   N   0.555013659944663   0.944173496638996   0.375000000000000   1.0000000
N2   N   0.377238987834360   0.437616914074854   0.375000000000000   1.0000000
N2   N   0.887265202828261   0.943268810640176   0.375000000000000   1.0000000
N2   N   0.731122873248377   0.447510670245969   0.375000000000000   1.0000000
N2   N   0.222215791325075   0.611108284628117   0.875000000000000   1.0000000
N2   N   0.055550417163646   0.111106823979663   0.875000000000000   1.0000000
N2   N   0.555551581324453   0.611107484655959   0.875000000000000   1.0000000
N2   N   0.388884938874358   0.111109244984728   0.875000000000000   1.0000000
N2   N   0.888885270875886   0.611109302104614   0.875000000000000   1.0000000
N2   N   0.058427892923527   0.612344685112815   0.375000000000000   1.0000000
N2   N   0.722216502538543   0.111108346306336   0.875000000000000   1.0000000
N2   N   0.218556837004810   0.108755497929524   0.375000000000000   1.0000000
N2   N   0.388811924112174   0.607278459025691   0.375000000000000   1.0000000
N2   N   0.731122873248377   0.616945536335745   0.375000000000000   1.0000000
N2   N   0.555111740930810   0.113193417045248   0.375000000000000   1.0000000
N2   N   0.388884938874358   0.611109027222973   0.875000000000000   1.0000000
N2   N   0.886141623183277   0.109737478258310   0.375000000000000   1.0000000
N2   N   0.222216631766673   0.777774982550005   0.875000000000000   1.0000000
N2   N   0.055550417163646   0.277776926517319   0.875000000000000   1.0000000
N2   N   0.388885382215547   0.277775507662748   0.875000000000000   1.0000000
N2   N   0.555550186824638   0.777775590655064   0.875000000000000   1.0000000
N2   N   0.888886416092523   0.777776703702728   0.875000000000000   1.0000000
N2   N   0.722218031305957   0.277775894296558   0.875000000000000   1.0000000
N2   N   0.058427892923527   0.779416541144049   0.375000000000000   1.0000000
N2   N   0.389673472570461   0.776931543089354   0.375000000000000   1.0000000
N2   N   0.214800200659442   0.274066766996389   0.375000000000000   1.0000000
N2   N   0.722067987841542   0.776757460161328   0.375000000000000   1.0000000
N2   N   0.556124299720330   0.283182784179768   0.375000000000000   1.0000000
N2   N   0.887265202828261   0.277329725521419   0.375000000000000   1.0000000
N2   N   0.055549897570032   0.444442427556804   0.875000000000000   1.0000000
N2   N   0.222215791325075   0.944440840030294   0.875000000000000   1.0000000
N2   N   0.555549557782960   0.944441445558144   0.875000000000000   1.0000000
N2   N   0.388885382215547   0.444443207886135   0.875000000000000   1.0000000
N2   N   0.888886364850516   0.944441752408711   0.875000000000000   1.0000000
N2   N   0.055419813135581   0.944295249559850   0.375000000000000   1.0000000
N2   N   0.722216059820594   0.444441706998484   0.875000000000000   1.0000000
N2   N   0.389673472570461   0.946075262814443   0.375000000000000   1.0000000
N2   N   0.218556837004810   0.443134672408622   0.375000000000000   1.0000000
N2   N   0.223383448144083   0.611030879566927   0.375000000000000   1.0000000
N2   N   0.720578428284635   0.943177538247364   0.375000000000000   1.0000000
N2   N   0.892314703544598   0.445600141257067   0.375000000000000   1.0000000
N2   N   0.055549677272882   0.611107635208415   0.875000000000000   1.0000000
N2   N   0.222216436845078   0.111107301624496   0.875000000000000   1.0000000
N2   N   0.722216059820594   0.611107686155446   0.875000000000000   1.0000000
N2   N   0.555550186824638   0.111107929502910   0.875000000000000   1.0000000
N2   N   0.888885469757243   0.111109401545293   0.875000000000000   1.0000000
B2   B   0.108309434199580   0.054199354699241   0.375000000000000   1.0000000
B2   B   0.621793549228888   0.560355806020464   0.375000000000000   1.0000000
B2   B   0.444121347162783   0.058036265311354   0.375000000000000   1.0000000
B2   B   0.947986934411247   0.556851649963968   0.375000000000000   1.0000000
B2   B   0.775406825684886   0.054370079509110   0.375000000000000   1.0000000
B2   B   0.111106661472192   0.722219997402761   0.875000000000000   1.0000000
B2   B   0.444437375852042   0.722213769677948   0.875000000000000   1.0000000
B2   B   0.277782115298485   0.222228194073508   0.875000000000000   1.0000000
B2   B   0.777770729724196   0.722217244194168   0.875000000000000   1.0000000
B2   B   0.611101337662994   0.222223386581212   0.875000000000000   1.0000000
B2   B   0.944445207763814   0.222222547049750   0.875000000000000   1.0000000
B2   B   0.278876435790015   0.722210448113448   0.375000000000000   1.0000000
B2   B   0.105271861078960   0.219302597206145   0.375000000000000   1.0000000
B2   B   0.443487445791523   0.227482850574139   0.375000000000000   1.0000000
B2   B   0.610421163217660   0.718866501599621   0.375000000000000   1.0000000
B2   B   0.947986934411247   0.724468617780615   0.375000000000000   1.0000000
B2   B   0.776251153979651   0.221896966074632   0.375000000000000   1.0000000
B2   B   0.111107698524174   0.888889622826614   0.875000000000000   1.0000000
B2   B   0.444438612657231   0.888885972995280   0.875000000000000   1.0000000
B2   B   0.277782115298485   0.388887254558306   0.875000000000000   1.0000000
B2   B   0.611096362784438   0.388886932114778   0.875000000000000   1.0000000
B2   B   0.777774000449989   0.888885603671063   0.875000000000000   1.0000000
B2   B   0.944442124244222   0.388886880760234   0.875000000000000   1.0000000
B2   B   0.108309434199580   0.387443412833667   0.375000000000000   1.0000000
B2   B   0.278876435790015   0.889999321009897   0.375000000000000   1.0000000
B2   B   0.609745026079076   0.887167285787023   0.375000000000000   1.0000000
B2   B   0.945098157747993   0.889856100605677   0.375000000000000   1.0000000
B2   B   0.782365905412550   0.389780117322968   0.375000000000000   1.0000000
B2   B   0.277774968960396   0.555549108045066   0.875000000000000   1.0000000
B2   B   0.111111333278214   0.055558089333269   0.875000000000000   1.0000000
B2   B   0.611096362784438   0.555542764002988   0.875000000000000   1.0000000
B2   B   0.444437375852042   0.055556939507429   0.875000000000000   1.0000000
B2   B   0.944439328370223   0.555552294575921   0.875000000000000   1.0000000
B2   B   0.112504295596325   0.555708829405489   0.375000000000000   1.0000000
B2   B   0.777775099269685   0.055554216301510   0.875000000000000   1.0000000
B2   B   0.277444251199413   0.056693766431282   0.375000000000000   1.0000000
B2   B   0.443487445791523   0.549337928550720   0.375000000000000   1.0000000
B2   B   0.784328982235398   0.558831157784366   0.375000000000000   1.0000000
B2   B   0.609745026079076   0.055911073625382   0.375000000000000   1.0000000
B2   B   0.444436262290454   0.555542602348916   0.875000000000000   1.0000000
B2   B   0.941310609836652   0.053856925270591   0.375000000000000   1.0000000
B2   B   0.277773744006781   0.722218230535070   0.875000000000000   1.0000000
B2   B   0.111115093423344   0.222224213378336   0.875000000000000   1.0000000
B2   B   0.444436262290454   0.222226993274873   0.875000000000000   1.0000000
B2   B   0.611101337662994   0.722211284415110   0.875000000000000   1.0000000
B2   B   0.944439328370223   0.722220367127637   0.875000000000000   1.0000000
B2   B   0.777774000449989   0.222221730112255   0.875000000000000   1.0000000
B2   B   0.113514590329517   0.723423961831424   0.375000000000000   1.0000000
B2   B   0.444121347162783   0.719418415184764   0.375000000000000   1.0000000
B2   B   0.269083323665049   0.218196303946121   0.375000000000000   1.0000000
B2   B   0.782365905412550   0.725919121422910   0.375000000000000   1.0000000
B2   B   0.610421163217660   0.224887994951369   0.375000000000000   1.0000000
B2   B   0.941310609836652   0.220787017899397   0.375000000000000   1.0000000
B2   B   0.111111333278214   0.388886577278274   0.875000000000000   1.0000000
B2   B   0.277773744006781   0.888888846805038   0.875000000000000   1.0000000
B2   B   0.611103815739778   0.888883642336019   0.875000000000000   1.0000000
B2   B   0.444436076573445   0.388884704953387   0.875000000000000   1.0000000
B2   B   0.944442124244222   0.888888576817316   0.875000000000000   1.0000000
B2   B   0.112504295596325   0.890128799524164   0.375000000000000   1.0000000
B2   B   0.777770729724196   0.388886818863356   0.875000000000000   1.0000000
B2   B   0.444301585475396   0.888817459404362   0.375000000000000   1.0000000
B2   B   0.269083323665049   0.384220353052256   0.375000000000000   1.0000000
B2   B   0.277444251199413   0.554083818101466   0.375000000000000   1.0000000
B2   B   0.621793549228888   0.394771076541752   0.375000000000000   1.0000000
B2   B   0.776251153979651   0.887687521238347   0.375000000000000   1.0000000
B2   B   0.945098157747993   0.388575390475645   0.375000000000000   1.0000000
B2   B   0.111107698524174   0.555551409030890   0.875000000000000   1.0000000
B2   B   0.277774968960396   0.055559194248666   0.875000000000000   1.0000000
B2   B   0.777768351108509   0.555550842220921   0.875000000000000   1.0000000
B2   B   0.611103815739778   0.055553506737087   0.875000000000000   1.0000000
B2   B   0.944445207763814   0.055555994047399   0.875000000000000   1.0000000
B2   B   0.055510728715488   0.111097473123466   0.124977837888942   1.0000000
B2   B   0.555517985591555   0.611061991951711   0.125214051448176   1.0000000
B2   B   0.388886505273247   0.111157706392532   0.125041294311072   1.0000000
B2   B   0.888892191029121   0.611112762181232   0.124991530481584   1.0000000
B2   B   0.722193811174991   0.111098721549928   0.124997958666578   1.0000000
B2   B   0.055558376711837   0.777785935664073   0.625001916143619   1.0000000
B2   B   0.388880342054815   0.777760958070560   0.624998307292280   1.0000000
B2   B   0.222185172726161   0.277759253029748   0.624997607160449   1.0000000
B2   B   0.722201219135958   0.777765204406156   0.625003134850707   1.0000000
B2   B   0.555517985591555   0.277789326973180   0.624785948551823   1.0000000
B2   B   0.888862099801794   0.277759312506408   0.625008940832308   1.0000000
B2   B   0.222223195652749   0.777778264493042   0.124993342122852   1.0000000
B2   B   0.055510728715488   0.277746588925357   0.124977837888942   1.0000000
B2   B   0.388892696240670   0.277861222779355   0.125229661328885   1.0000000
B2   B   0.555535835363143   0.777752230203753   0.125004886168666   1.0000000
B2   B   0.888881282856853   0.777780440969192   0.124977713183848   1.0000000
B2   B   0.722201219135958   0.277769348063137   0.124996865149292   1.0000000
B2   B   0.055544313560856   0.944452307530004   0.625002591352605   1.0000000
B2   B   0.388880342054815   0.944452717317591   0.624998307292280   1.0000000
B2   B   0.222211873940245   0.444403290208197   0.624984772019852   1.0000000
B2   B   0.555410114215245   0.444371723774287   0.624560276226130   1.0000000
B2   B   0.722193811174991   0.944428422958399   0.625002041333421   1.0000000
B2   B   0.888881282856853   0.444434175220996   0.625022286816153   1.0000000
B2   B   0.055544313560856   0.444425339364181   0.124997408647395   1.0000000
B2   B   0.222222919318379   0.944465658591738   0.124995248457509   1.0000000
B2   B   0.555533226078524   0.944433279705926   0.125002922596325   1.0000000
B2   B   0.388892696240670   0.444364806794651   0.125229661328885   1.0000000
B2   B   0.888862099801794   0.944436120628722   0.124991059167693   1.0000000
B2   B   0.722204743041593   0.444437841227039   0.125096932642239   1.0000000
B2   B   0.222222919318379   0.611090594059976   0.625004751542490   1.0000000
B2   B   0.055510728715488   0.111097473123466   0.625022162111058   1.0000000
B2   B   0.555517985591555   0.611061991951711   0.624785948551823   1.0000000
B2   B   0.388886505273247   0.111157706392532   0.624958705688929   1.0000000
B2   B   0.888892191029121   0.611112762181232   0.625008469518415   1.0000000
B2   B   0.055558376711837   0.611105774381100   0.124998083856381   1.0000000
B2   B   0.722193811174991   0.111098721549928   0.625002041333421   1.0000000
B2   B   0.222211873940245   0.111141917065384   0.125015227980148   1.0000000
B2   B   0.388886505273247   0.611062132214056   0.125041294311072   1.0000000
B2   B   0.722204743041593   0.611100235147890   0.125096932642239   1.0000000
B2   B   0.555535835363143   0.111116938492726   0.125004886168666   1.0000000
B2   B   0.388886505273247   0.611062132214056   0.624958705688929   1.0000000
B2   B   0.888850240059171   0.111091786696257   0.124986355356546   1.0000000
B2   B   0.222223195652749   0.777778264493042   0.625006657877149   1.0000000
B2   B   0.055510728715488   0.277746588925357   0.625022162111058   1.0000000
B2   B   0.388892696240670   0.277861222779355   0.624770338671114   1.0000000
B2   B   0.555535835363143   0.777752230203753   0.624995113831335   1.0000000
B2   B   0.888881282856853   0.777780440969192   0.625022286816153   1.0000000
B2   B   0.722201219135958   0.277769348063137   0.625003134850707   1.0000000
B2   B   0.055558376711837   0.777785935664073   0.124998083856381   1.0000000
B2   B   0.388880342054815   0.777760958070560   0.125001692707719   1.0000000
B2   B   0.222185172726161   0.277759253029748   0.125002392839550   1.0000000
B2   B   0.722201219135958   0.777765204406156   0.124996865149292   1.0000000
B2   B   0.555517985591555   0.277789326973180   0.125214051448176   1.0000000
B2   B   0.888862099801794   0.277759312506408   0.124991059167693   1.0000000
B2   B   0.055544313560856   0.444425339364181   0.625002591352605   1.0000000
B2   B   0.222222919318379   0.944465658591738   0.625004751542490   1.0000000
B2   B   0.555533226078524   0.944433279705926   0.624997077403675   1.0000000
B2   B   0.388892696240670   0.444364806794651   0.624770338671114   1.0000000
B2   B   0.888862099801794   0.944436120628722   0.625008940832308   1.0000000
B2   B   0.055544313560856   0.944452307530004   0.124997408647395   1.0000000
B2   B   0.722204743041593   0.444437841227039   0.624903067357760   1.0000000
B2   B   0.388880342054815   0.944452717317591   0.125001692707719   1.0000000
B2   B   0.222211873940245   0.444403290208197   0.125015227980148   1.0000000
B2   B   0.222222919318379   0.611090594059976   0.124995248457509   1.0000000
B2   B   0.555410114215245   0.444371723774287   0.125439723773870   1.0000000
B2   B   0.722193811174991   0.944428422958399   0.124997958666578   1.0000000
B2   B   0.888881282856853   0.444434175220996   0.124977713183848   1.0000000
B2   B   0.055558376711837   0.611105774381100   0.625001916143619   1.0000000
B2   B   0.222211873940245   0.111141917065384   0.624984772019852   1.0000000
B2   B   0.722204743041593   0.611100235147890   0.624903067357760   1.0000000
B2   B   0.555535835363143   0.111116938492726   0.624995113831335   1.0000000
B2   B   0.888850240059171   0.111091786696257   0.625013644643454   1.0000000


