data_1
_audit_creation_method   'vasp2cif'
_cell_length_a    17.52789999999977
_cell_length_b    17.52789999999977
_cell_length_c    15.0
_cell_angle_alpha    90.0
_cell_angle_beta    90.0
_cell_angle_gamma    119.99999999999916

_symmetry_space_group_name_H-M    'P 1'
loop_
_atom_site_label
_atom_site_type_symbol
_atom_site_fract_x
_atom_site_fract_y
_atom_site_fract_z
_atom_site_occupancy
B2   B   0.908576628697167   0.954932940826718   0.111045712914544   1.0000000
B2   B   0.904814144330249   0.095261198869742   0.111076355199122   1.0000000
B2   B   0.903434975219136   0.237617721450031   0.111097567158447   1.0000000
B2   B   0.903179403252791   0.380777235078604   0.111029526107498   1.0000000
B2   B   0.903887207879393   0.524182551692400   0.111030426799837   1.0000000
B2   B   0.907309151853179   0.668010085182999   0.111121239075128   1.0000000
B2   B   0.909980239146472   0.812231818393225   0.110984040914064   1.0000000
B2   B   0.050516990294821   0.953777308890943   0.111056418748599   1.0000000
B2   B   0.048643299046796   0.095684743666975   0.111021003315668   1.0000000
B2   B   0.046212721098258   0.237222123153931   0.111018773801061   1.0000000
B2   B   0.045399476866829   0.379962835892471   0.111035011376704   1.0000000
B2   B   0.046004827149437   0.523327825146339   0.111020840911944   1.0000000
B2   B   0.048180614999175   0.666997334840058   0.111057803146173   1.0000000
B2   B   0.050428337543717   0.810606804279856   0.111085230448341   1.0000000
B2   B   0.192545470353939   0.952962461026056   0.111033398313496   1.0000000
B2   B   0.191627598665128   0.095444691868325   0.111037390788194   1.0000000
B2   B   0.189065800784952   0.236613494310577   0.111035488263445   1.0000000
B2   B   0.187399499423636   0.378877802423793   0.111061983237937   1.0000000
B2   B   0.187711307645932   0.522385032022768   0.111116385869164   1.0000000
B2   B   0.189246360064066   0.666215719041165   0.111102178695959   1.0000000
B2   B   0.192015836922753   0.809744937050152   0.111023987790406   1.0000000
B2   B   0.334836875333165   0.952301074291732   0.111029981651546   1.0000000
B2   B   0.334549653720298   0.095470921223746   0.111092771174154   1.0000000
B2   B   0.333057139331578   0.237370612508881   0.111119107388790   1.0000000
B2   B   0.328963650927785   0.376270695329712   0.110998500341937   1.0000000
B2   B   0.328654607456515   0.521012028946236   0.111026677682451   1.0000000
B2   B   0.329654977285173   0.665199698490361   0.111153932622657   1.0000000
B2   B   0.334220767170015   0.808826243292291   0.111100556904633   1.0000000
B2   B   0.477178053953120   0.951060121189781   0.111043710538052   1.0000000
B2   B   0.477052931976307   0.095435591066296   0.111030298527449   1.0000000
B2   B   0.476564331643600   0.239473954577107   0.111108216243805   1.0000000
B2   B   0.474523482837588   0.382223617795689   0.110966482771643   1.0000000
B2   B   0.468443623518114   0.659445162777104   0.110943853331222   1.0000000
B2   B   0.477118657360298   0.806262942077533   0.110999640037227   1.0000000
B2   B   0.619617025903243   0.950449926503601   0.111003979152242   1.0000000
B2   B   0.619151884035419   0.094775318629739   0.111034440468416   1.0000000
B2   B   0.618895699584057   0.239299922598711   0.111056601642250   1.0000000
B2   B   0.618522016374797   0.384122260529138   0.111031345808936   1.0000000
B2   B   0.617657954518733   0.530286464915049   0.111118327844948   1.0000000
B2   B   0.620790509300453   0.806266689377423   0.111203762133170   1.0000000
B2   B   0.763219417240816   0.952552927974183   0.110994223640193   1.0000000
B2   B   0.761532499129075   0.094795900931986   0.111112052342062   1.0000000
B2   B   0.760991818885261   0.238167112481076   0.111100946297978   1.0000000
B2   B   0.760884839108419   0.381878019812270   0.111064736016989   1.0000000
B2   B   0.761313968824130   0.525642268952975   0.111022331234949   1.0000000
B2   B   0.768879286874170   0.671037537073309   0.111051618671431   1.0000000
B2   B   0.771149483399473   0.815070290881985   0.111082756533054   1.0000000
C2   C   0.465889592579913   0.519824128387114   0.110784027484831   1.0000000
N2   N   0.956118976600774   0.907084089570026   0.111103633109695   1.0000000
N2   N   0.954129697887735   0.049201783313746   0.111025919686910   1.0000000
N2   N   0.951358018442478   0.190190058073648   0.111057482569674   1.0000000
N2   N   0.950489929054202   0.332770262536620   0.111032845854150   1.0000000
N2   N   0.950873099914059   0.475979038995934   0.110990454231645   1.0000000
N2   N   0.953218268035651   0.619417699781829   0.111043223374020   1.0000000
N2   N   0.955819816511876   0.763263830079255   0.111158049802919   1.0000000
N2   N   0.097739262846337   0.905767066103663   0.110999305041546   1.0000000
N2   N   0.096917324711165   0.048580475213429   0.111013684992681   1.0000000
N2   N   0.094584181823967   0.190177511241240   0.110993841264487   1.0000000
N2   N   0.092815944709070   0.332077230149884   0.111004189696120   1.0000000
N2   N   0.092868865506675   0.475068765634318   0.111033983014177   1.0000000
N2   N   0.094399914747058   0.618594053875530   0.111036465906580   1.0000000
N2   N   0.096972516609041   0.762275779072480   0.111021322339936   1.0000000
N2   N   0.239787533790528   0.905006753512277   0.111000728213872   1.0000000
N2   N   0.239588903868868   0.048112523901071   0.111050798644978   1.0000000
N2   N   0.238097522506704   0.190286640784695   0.111042703661043   1.0000000
N2   N   0.234957272004700   0.331052366232870   0.111043243997135   1.0000000
N2   N   0.234303031691682   0.473644828435770   0.111084901755434   1.0000000
N2   N   0.235129411144689   0.617606863645851   0.111134165250689   1.0000000
N2   N   0.238771734138038   0.761512705268132   0.111057400564987   1.0000000
N2   N   0.382002478641310   0.904138360023480   0.111040048793410   1.0000000
N2   N   0.382044144002508   0.047707667824620   0.111036278911688   1.0000000
N2   N   0.381479151571103   0.190786687860483   0.111100790571904   1.0000000
N2   N   0.379434865991310   0.332241076947063   0.111085328487607   1.0000000
N2   N   0.374650179967587   0.470093277692662   0.110825763087870   1.0000000
N2   N   0.374056988173652   0.615764767316400   0.111079978078685   1.0000000
N2   N   0.381027098018550   0.760368384555129   0.111126450150667   1.0000000
N2   N   0.524315167005324   0.902352613646234   0.111042153893659   1.0000000
N2   N   0.524158590761507   0.046916581120933   0.110996712603855   1.0000000
N2   N   0.523906414629266   0.191296909450682   0.111035056481644   1.0000000
N2   N   0.523247190259863   0.335530933184710   0.111075498510741   1.0000000
N2   N   0.518750038628403   0.478365369461721   0.110747652423861   1.0000000
N2   N   0.500156834578626   0.601095075600476   0.110905611433146   1.0000000
N2   N   0.523909066574559   0.756581281521572   0.110847933211748   1.0000000
N2   N   0.667651922003558   0.902748589461704   0.110943156561345   1.0000000
N2   N   0.666432175463584   0.046397093445041   0.111034257561130   1.0000000
N2   N   0.665974787027453   0.190631682143185   0.111043299155661   1.0000000
N2   N   0.665697354121205   0.335238037380536   0.111046457614039   1.0000000
N2   N   0.665035200293028   0.480326124144790   0.110957082054674   1.0000000
N2   N   0.675838811643523   0.625584654930962   0.111585148499173   1.0000000
N2   N   0.679277916626060   0.769807817182753   0.111761929474346   1.0000000
N2   N   0.814438310636710   0.908726274306300   0.111005757474433   1.0000000
N2   N   0.809679977151735   0.047700492290252   0.111065194059337   1.0000000
N2   N   0.808412122314736   0.190167902585663   0.111120266434784   1.0000000
N2   N   0.808076760638398   0.333557833228186   0.111051876085307   1.0000000
N2   N   0.808355223668090   0.477101168520061   0.111033382292930   1.0000000
N2   N   0.812477004443752   0.620617391256115   0.111072846115193   1.0000000
N2   N   0.816286542534584   0.765652046441697   0.110623905927360   1.0000000
O2   O   0.634875682868450   0.677559349625213   0.108376199714389   1.0000000


