data_1
_audit_creation_method   'vasp2cif'
_cell_length_a    14.93631414619966
_cell_length_b    14.936314146199727
_cell_length_c    13.341276283792837
_cell_angle_alpha    90.0
_cell_angle_beta    90.0
_cell_angle_gamma    119.99999999999984

_symmetry_space_group_name_H-M    'P 1'
loop_
_atom_site_label
_atom_site_type_symbol
_atom_site_fract_x
_atom_site_fract_y
_atom_site_fract_z
_atom_site_occupancy
Al2   Al   0.444444444444443   0.388888888888886   0.375000000000000   1.0000000
N2   N   0.111087975996095   0.055537929627344   0.124628428790264   1.0000000
N2   N   0.611134495288642   0.555582350799191   0.124748680661216   1.0000000
N2   N   0.444449953631250   0.055537929627344   0.124628428790264   1.0000000
N2   N   0.944448164284539   0.555555881703092   0.124806783681923   1.0000000
N2   N   0.777777777777779   0.055555555555557   0.124809835800723   1.0000000
N2   N   0.111111111111114   0.722222222222221   0.625149964437533   1.0000000
N2   N   0.444449953631250   0.722245357337241   0.625371571209735   1.0000000
N2   N   0.277750982534144   0.222198838044692   0.625251319338783   1.0000000
N2   N   0.777795403705992   0.722245357337241   0.625371571209735   1.0000000
N2   N   0.611118394742595   0.222214938590740   0.625374415552428   1.0000000
N2   N   0.944437527267358   0.222218360143819   0.625240673943525   1.0000000
N2   N   0.277777451630243   0.722225615914782   0.124806783681923   1.0000000
N2   N   0.111096543848151   0.222214938590740   0.124625584447573   1.0000000
N2   N   0.444447855510548   0.222198838044692   0.124748680661216   1.0000000
N2   N   0.611118394742595   0.722236789485186   0.124625584447573   1.0000000
N2   N   0.944448164284539   0.722225615914782   0.124806783681923   1.0000000
N2   N   0.777780832876460   0.222218360143819   0.124759326056474   1.0000000
N2   N   0.111107717418554   0.888885169048790   0.625193216318077   1.0000000
N2   N   0.444449159643754   0.888891246488541   0.625178921715706   1.0000000
N2   N   0.277750982534144   0.388885477822780   0.625251319338783   1.0000000
N2   N   0.611134495288642   0.388885477822780   0.625251319338783   1.0000000
N2   N   0.777780832876460   0.888895806065971   0.625240673943525   1.0000000
N2   N   0.944442086844788   0.388884173689574   0.625178921715706   1.0000000
N2   N   0.111087975996095   0.388883379702079   0.124628428790264   1.0000000
N2   N   0.277777451630243   0.888885169048790   0.124806783681923   1.0000000
N2   N   0.611114973189517   0.888895806065971   0.124759326056474   1.0000000
N2   N   0.444444444444443   0.388888888888886   0.129064527646309   1.0000000
N2   N   0.944442086844788   0.888891246488541   0.124821078284294   1.0000000
N2   N   0.777795403705992   0.388883379702079   0.124628428790264   1.0000000
N2   N   0.277772553843363   0.555560779489972   0.625287294019115   1.0000000
N2   N   0.111087975996095   0.055537929627344   0.625371571209735   1.0000000
N2   N   0.611134495288642   0.555582350799191   0.625251319338783   1.0000000
N2   N   0.444449953631250   0.055537929627344   0.625371571209735   1.0000000
N2   N   0.944448164284539   0.555555881703092   0.625193216318077   1.0000000
N2   N   0.111107717418554   0.555555881703092   0.124806783681923   1.0000000
N2   N   0.777777777777779   0.055555555555557   0.625190164199275   1.0000000
N2   N   0.277772553843363   0.055545107686727   0.124712705980886   1.0000000
N2   N   0.444447855510548   0.555582350799191   0.124748680661216   1.0000000
N2   N   0.777788225646611   0.555560779489972   0.124712705980886   1.0000000
N2   N   0.611114973189517   0.055552500456875   0.124759326056474   1.0000000
N2   N   0.444447855510548   0.555582350799191   0.625251319338783   1.0000000
N2   N   0.944437527267358   0.055552500456875   0.124759326056474   1.0000000
N2   N   0.277777451630243   0.722225615914782   0.625193216318077   1.0000000
N2   N   0.111096543848151   0.222214938590740   0.625374415552428   1.0000000
N2   N   0.444447855510548   0.222198838044692   0.625251319338783   1.0000000
N2   N   0.611118394742595   0.722236789485186   0.625374415552428   1.0000000
N2   N   0.944448164284539   0.722225615914782   0.625193216318077   1.0000000
N2   N   0.777780832876460   0.222218360143819   0.625240673943525   1.0000000
N2   N   0.111111111111114   0.722222222222221   0.124850035562466   1.0000000
N2   N   0.444449953631250   0.722245357337241   0.124628428790264   1.0000000
N2   N   0.277750982534144   0.222198838044692   0.124748680661216   1.0000000
N2   N   0.777795403705992   0.722245357337241   0.124628428790264   1.0000000
N2   N   0.611118394742595   0.222214938590740   0.124625584447573   1.0000000
N2   N   0.944437527267358   0.222218360143819   0.124759326056474   1.0000000
N2   N   0.111087975996095   0.388883379702079   0.625371571209735   1.0000000
N2   N   0.277777451630243   0.888885169048790   0.625193216318077   1.0000000
N2   N   0.611114973189517   0.888895806065971   0.625240673943525   1.0000000
N2   N   0.444444444444443   0.388888888888886   0.620935472353691   1.0000000
N2   N   0.944442086844788   0.888891246488541   0.625178921715706   1.0000000
N2   N   0.111107717418554   0.888885169048790   0.124806783681923   1.0000000
N2   N   0.777795403705992   0.388883379702079   0.625371571209735   1.0000000
N2   N   0.444449159643754   0.888891246488541   0.124821078284294   1.0000000
N2   N   0.277750982534144   0.388885477822780   0.124748680661216   1.0000000
N2   N   0.277772553843363   0.555560779489972   0.124712705980886   1.0000000
N2   N   0.611134495288642   0.388885477822780   0.124748680661216   1.0000000
N2   N   0.777780832876460   0.888895806065971   0.124759326056474   1.0000000
N2   N   0.944442086844788   0.388884173689574   0.124821078284294   1.0000000
N2   N   0.111107717418554   0.555555881703092   0.625193216318077   1.0000000
N2   N   0.277772553843363   0.055545107686727   0.625287294019115   1.0000000
N2   N   0.777788225646611   0.555560779489972   0.625287294019115   1.0000000
N2   N   0.611114973189517   0.055552500456875   0.625240673943525   1.0000000
N2   N   0.944437527267358   0.055552500456875   0.625240673943525   1.0000000
N2   N   0.054560476130455   0.110437929998980   0.375000000000000   1.0000000
N2   N   0.556108516975850   0.612217033951697   0.375000000000000   1.0000000
N2   N   0.387879175289049   0.105479937279760   0.375000000000000   1.0000000
N2   N   0.890821212784660   0.612077273059000   0.375000000000000   1.0000000
N2   N   0.722396564119960   0.110936769213375   0.375000000000000   1.0000000
N2   N   0.055554358968853   0.777778974364483   0.875000000000000   1.0000000
N2   N   0.388890637337942   0.777779102682817   0.875000000000000   1.0000000
N2   N   0.222222128914617   0.277777731123976   0.875000000000000   1.0000000
N2   N   0.722224226166254   0.777780982680687   0.875000000000000   1.0000000
N2   N   0.555555602209360   0.277777731123976   0.875000000000000   1.0000000
N2   N   0.888888746165496   0.277777492331000   0.875000000000000   1.0000000
N2   N   0.221851857030124   0.777592595181730   0.375000000000000   1.0000000
N2   N   0.054560476130455   0.277455879464811   0.375000000000000   1.0000000
N2   N   0.379627235770942   0.259254471541890   0.375000000000000   1.0000000
N2   N   0.555877453868525   0.778772857202881   0.375000000000000   1.0000000
N2   N   0.890472160607191   0.779054593401721   0.375000000000000   1.0000000
N2   N   0.722895403334356   0.277455879464811   0.375000000000000   1.0000000
N2   N   0.055554230650518   0.944444867988460   0.875000000000000   1.0000000
N2   N   0.388890637337942   0.944444867988460   0.875000000000000   1.0000000
N2   N   0.222222640753423   0.444440691938979   0.875000000000000   1.0000000
N2   N   0.555542053202754   0.444437693268041   0.875000000000000   1.0000000
N2   N   0.722222512154730   0.944445024309461   0.875000000000000   1.0000000
N2   N   0.888888465344869   0.444442695995386   0.875000000000000   1.0000000
N2   N   0.054278739931615   0.444750900538806   0.375000000000000   1.0000000
N2   N   0.221256060274335   0.942512120548669   0.375000000000000   1.0000000
N2   N   0.555817904829980   0.944575619081654   0.375000000000000   1.0000000
N2   N   0.379627235770942   0.453706097562387   0.375000000000000   1.0000000
N2   N   0.888757714251675   0.944575619081654   0.375000000000000   1.0000000
N2   N   0.727853396053576   0.445454158044280   0.375000000000000   1.0000000
N2   N   0.222223822440117   0.611109510893218   0.875000000000000   1.0000000
N2   N   0.055552350652649   0.111109107167082   0.875000000000000   1.0000000
N2   N   0.555555602209360   0.611111204418719   0.875000000000000   1.0000000
N2   N   0.388892641394350   0.111115282147780   0.875000000000000   1.0000000
N2   N   0.888885688453095   0.611109510893218   0.875000000000000   1.0000000
N2   N   0.055740738151606   0.611481476303212   0.375000000000000   1.0000000
N2   N   0.722222512154730   0.111110821178606   0.875000000000000   1.0000000
N2   N   0.217600761990704   0.105479937279760   0.375000000000000   1.0000000
N2   N   0.387879175289049   0.615732571342632   0.375000000000000   1.0000000
N2   N   0.727853396053576   0.615732571342632   0.375000000000000   1.0000000
N2   N   0.555877453868525   0.110437929998980   0.375000000000000   1.0000000
N2   N   0.388892641394350   0.611110692579913   0.875000000000000   1.0000000
N2   N   0.888540205093407   0.110936769213375   0.375000000000000   1.0000000
N2   N   0.222224615395628   0.777778974364483   0.875000000000000   1.0000000
N2   N   0.055552350652649   0.277776576818902   0.875000000000000   1.0000000
N2   N   0.388895640065287   0.277791280130581   0.875000000000000   1.0000000
N2   N   0.555556756514433   0.777780982680687   0.875000000000000   1.0000000
N2   N   0.888888465344869   0.777779102682817   0.875000000000000   1.0000000
N2   N   0.722224226166254   0.277776576818902   0.875000000000000   1.0000000
N2   N   0.055740738151606   0.777592595181730   0.375000000000000   1.0000000
N2   N   0.388582432794522   0.779054593401721   0.375000000000000   1.0000000
N2   N   0.221116299381639   0.277224816357487   0.375000000000000   1.0000000
N2   N   0.722895403334356   0.778772857202881   0.375000000000000   1.0000000
N2   N   0.556108516975850   0.277224816357487   0.375000000000000   1.0000000
N2   N   0.888757714251675   0.277515428503355   0.375000000000000   1.0000000
N2   N   0.055554230650518   0.444442695995386   0.875000000000000   1.0000000
N2   N   0.222223822440117   0.944447644880234   0.875000000000000   1.0000000
N2   N   0.555555841002337   0.944444587167833   0.875000000000000   1.0000000
N2   N   0.388895640065287   0.444437693268041   0.875000000000000   1.0000000
N2   N   0.888888746165496   0.944444587167833   0.875000000000000   1.0000000
N2   N   0.054278739931615   0.942861172726138   0.375000000000000   1.0000000
N2   N   0.722218051185556   0.444440691938979   0.875000000000000   1.0000000
N2   N   0.388582432794522   0.942861172726138   0.375000000000000   1.0000000
N2   N   0.217600761990704   0.445454158044280   0.375000000000000   1.0000000
N2   N   0.221256060274335   0.612077273059000   0.375000000000000   1.0000000
N2   N   0.574078861791445   0.453706097562387   0.375000000000000   1.0000000
N2   N   0.722396564119960   0.944793128239921   0.375000000000000   1.0000000
N2   N   0.890472160607191   0.444750900538806   0.375000000000000   1.0000000
N2   N   0.055554358968853   0.611108717937707   0.875000000000000   1.0000000
N2   N   0.222222640753423   0.111115282147780   0.875000000000000   1.0000000
N2   N   0.722218051185556   0.611110692579913   0.875000000000000   1.0000000
N2   N   0.555556756514433   0.111109107167082   0.875000000000000   1.0000000
N2   N   0.888888309023868   0.111110821178606   0.875000000000000   1.0000000
B2   B   0.108126565921467   0.052782288002464   0.375000000000000   1.0000000
B2   B   0.618197392809008   0.561354851791773   0.375000000000000   1.0000000
B2   B   0.444655722080997   0.052782288002464   0.375000000000000   1.0000000
B2   B   0.945292402626116   0.555799299318293   0.375000000000000   1.0000000
B2   B   0.777777777777779   0.055555555555557   0.375000000000000   1.0000000
B2   B   0.111111111111114   0.722222222222221   0.875000000000000   1.0000000
B2   B   0.444450137046635   0.722232042468841   0.875000000000000   1.0000000
B2   B   0.277758656160058   0.222211598372235   0.875000000000000   1.0000000
B2   B   0.777781905422206   0.722232042468841   0.875000000000000   1.0000000
B2   B   0.611120170836566   0.222213162496770   0.875000000000000   1.0000000
B2   B   0.944437928177163   0.222218171309065   0.875000000000000   1.0000000
B2   B   0.277534034015043   0.722826436641159   0.375000000000000   1.0000000
B2   B   0.110191211341988   0.221762272337658   0.375000000000000   1.0000000
B2   B   0.443157458982766   0.215135940524328   0.375000000000000   1.0000000
B2   B   0.611571060995677   0.723142121991348   0.375000000000000   1.0000000
B2   B   0.945292402626116   0.722826436641159   0.375000000000000   1.0000000
B2   B   0.777908133651528   0.221820009256287   0.375000000000000   1.0000000
B2   B   0.111109516191521   0.888889083048117   0.875000000000000   1.0000000
B2   B   0.444448558929693   0.888890946131510   0.875000000000000   1.0000000
B2   B   0.277758656160058   0.388880391121152   0.875000000000000   1.0000000
B2   B   0.611121734961101   0.388880391121152   0.875000000000000   1.0000000
B2   B   0.777780243131902   0.888895405156166   0.875000000000000   1.0000000
B2   B   0.944442387201819   0.388884774403636   0.875000000000000   1.0000000
B2   B   0.108126565921467   0.388677611252332   0.375000000000000   1.0000000
B2   B   0.277534034015043   0.888040930707212   0.375000000000000   1.0000000
B2   B   0.611513324077050   0.889421457728570   0.375000000000000   1.0000000
B2   B   0.944295307353668   0.889038025979661   0.375000000000000   1.0000000
B2   B   0.780551045330871   0.388677611252332   0.375000000000000   1.0000000
B2   B   0.277776181028908   0.555557152304427   0.875000000000000   1.0000000
B2   B   0.111101290864495   0.055551427911129   0.875000000000000   1.0000000
B2   B   0.611121734961101   0.555574677173277   0.875000000000000   1.0000000
B2   B   0.444450137046635   0.055551427911129   0.875000000000000   1.0000000
B2   B   0.944444250285211   0.555553766476732   0.875000000000000   1.0000000
B2   B   0.110506896692177   0.555799299318293   0.375000000000000   1.0000000
B2   B   0.777777777777779   0.055555555555557   0.875000000000000   1.0000000
B2   B   0.276347613330808   0.052695226661618   0.375000000000000   1.0000000
B2   B   0.443157458982766   0.561354851791773   0.375000000000000   1.0000000
B2   B   0.780638106671719   0.556985720002525   0.375000000000000   1.0000000
B2   B   0.611513324077050   0.055425199681807   0.375000000000000   1.0000000
B2   B   0.444452942212177   0.555574677173277   0.875000000000000   1.0000000
B2   B   0.943911875604759   0.055425199681807   0.375000000000000   1.0000000
B2   B   0.277779566856604   0.722223817141814   0.875000000000000   1.0000000
B2   B   0.111092991660211   0.222213162496770   0.875000000000000   1.0000000
B2   B   0.444452942212177   0.222211598372235   0.875000000000000   1.0000000
B2   B   0.611120170836566   0.722240341673126   0.875000000000000   1.0000000
B2   B   0.944444250285211   0.722223817141814   0.875000000000000   1.0000000
B2   B   0.777780243131902   0.222218171309065   0.875000000000000   1.0000000
B2   B   0.111111111111114   0.722222222222221   0.375000000000000   1.0000000
B2   B   0.444655722080997   0.725206767411868   0.375000000000000   1.0000000
B2   B   0.271978481541563   0.215135940524328   0.375000000000000   1.0000000
B2   B   0.780551045330871   0.725206767411868   0.375000000000000   1.0000000
B2   B   0.611571060995677   0.221762272337658   0.375000000000000   1.0000000
B2   B   0.943911875604759   0.221820009256287   0.375000000000000   1.0000000
B2   B   0.111101290864495   0.388883196286693   0.875000000000000   1.0000000
B2   B   0.277779566856604   0.888889083048117   0.875000000000000   1.0000000
B2   B   0.611115162024271   0.888895405156166   0.875000000000000   1.0000000
B2   B   0.444444444444443   0.388888888888886   0.875000000000000   1.0000000
B2   B   0.944442387201819   0.888890946131510   0.875000000000000   1.0000000
B2   B   0.110506896692177   0.888040930707212   0.375000000000000   1.0000000
B2   B   0.777781905422206   0.388883196286693   0.875000000000000   1.0000000
B2   B   0.444742718625992   0.889038025979661   0.375000000000000   1.0000000
B2   B   0.271978481541563   0.390175874350563   0.375000000000000   1.0000000
B2   B   0.276347613330808   0.556985720002525   0.375000000000000   1.0000000
B2   B   0.618197392809007   0.390175874350563   0.375000000000000   1.0000000
B2   B   0.777908133651528   0.889421457728570   0.375000000000000   1.0000000
B2   B   0.944295307353668   0.388590614707337   0.375000000000000   1.0000000
B2   B   0.111109516191521   0.555553766476732   0.875000000000000   1.0000000
B2   B   0.277776181028908   0.055552362057817   0.875000000000000   1.0000000
B2   B   0.777780971275519   0.555557152304427   0.875000000000000   1.0000000
B2   B   0.611115162024271   0.055553090201433   0.875000000000000   1.0000000
B2   B   0.944437928177163   0.055553090201433   0.875000000000000   1.0000000
B2   B   0.055583746069657   0.111191750238988   0.124565394512286   1.0000000
B2   B   0.555637850962830   0.611275701925662   0.124603151866442   1.0000000
B2   B   0.388767996570097   0.110985988795468   0.124517063485691   1.0000000
B2   B   0.888812955246599   0.611073144289970   0.124662724936853   1.0000000
B2   B   0.722275075055157   0.111058258278178   0.124656932623191   1.0000000
B2   B   0.055606873739140   0.777726459594196   0.625300914130694   1.0000000
B2   B   0.388938178510558   0.777891462769430   0.625360114078328   1.0000000
B2   B   0.222057631407674   0.277695482370505   0.625396848133558   1.0000000
B2   B   0.722141583094348   0.777749587263679   0.625434605487715   1.0000000
B2   B   0.555637850962830   0.277695482370505   0.625396848133558   1.0000000
B2   B   0.888936382591510   0.277872765183027   0.625337055998304   1.0000000
B2   B   0.222119585855056   0.777726459594196   0.124699085869306   1.0000000
B2   B   0.055583746069657   0.277725329164006   0.124565394512286   1.0000000
B2   B   0.388792033368030   0.277584066736067   0.125870473284599   1.0000000
B2   B   0.555608004169330   0.777749587263679   0.124565394512286   1.0000000
B2   B   0.888953284258865   0.777891462769430   0.124639885921671   1.0000000
B2   B   0.722141583094348   0.277725329164006   0.124565394512286   1.0000000
B2   B   0.055441870563906   0.944380049074463   0.625360114078328   1.0000000
B2   B   0.388938178510558   0.944380049074463   0.625360114078328   1.0000000
B2   B   0.222217992225364   0.444565336763232   0.625482936514309   1.0000000
B2   B   0.555749266597268   0.444541299965298   0.624129526715399   1.0000000
B2   B   0.722275075055157   0.944550150110316   0.625343067376808   1.0000000
B2   B   0.888953284258865   0.444395154822771   0.625360114078328   1.0000000
B2   B   0.055441870563906   0.444395154822771   0.124639885921671   1.0000000
B2   B   0.222260189043364   0.944520378086730   0.124662724936853   1.0000000
B2   B   0.555460568150308   0.944396950741819   0.124662944001697   1.0000000
B2   B   0.388792033368030   0.444541299965298   0.125870473284599   1.0000000
B2   B   0.888936382591510   0.944396950741819   0.124662944001697   1.0000000
B2   B   0.722347344537868   0.444565336763232   0.124517063485691   1.0000000
B2   B   0.222260189043364   0.611073144289970   0.625337275063148   1.0000000
B2   B   0.055583746069657   0.111191750238988   0.625434605487715   1.0000000
B2   B   0.555637850962830   0.611275701925662   0.625396848133558   1.0000000
B2   B   0.388767996570097   0.110985988795468   0.625482936514309   1.0000000
B2   B   0.888812955246599   0.611073144289970   0.625337275063148   1.0000000
B2   B   0.055606873739140   0.611213747478280   0.124699085869306   1.0000000
B2   B   0.722275075055157   0.111058258278178   0.625343067376808   1.0000000
B2   B   0.222217992225364   0.110985988795468   0.124517063485691   1.0000000
B2   B   0.388767996570097   0.611115341107971   0.124517063485691   1.0000000
B2   B   0.722347344537868   0.611115341107971   0.124517063485691   1.0000000
B2   B   0.555608004169330   0.111191750238988   0.124565394512286   1.0000000
B2   B   0.388767996570097   0.611115341107971   0.625482936514309   1.0000000
B2   B   0.888783183223013   0.111058258278178   0.124656932623191   1.0000000
B2   B   0.222119585855056   0.777726459594196   0.625300914130694   1.0000000
B2   B   0.055583746069657   0.277725329164006   0.625434605487715   1.0000000
B2   B   0.388792033368030   0.277584066736067   0.624129526715399   1.0000000
B2   B   0.555608004169330   0.777749587263679   0.625434605487715   1.0000000
B2   B   0.888953284258865   0.777891462769430   0.625360114078328   1.0000000
B2   B   0.722141583094348   0.277725329164006   0.625434605487715   1.0000000
B2   B   0.055606873739140   0.777726459594196   0.124699085869306   1.0000000
B2   B   0.388938178510558   0.777891462769430   0.124639885921671   1.0000000
B2   B   0.222057631407674   0.277695482370505   0.124603151866442   1.0000000
B2   B   0.722141583094348   0.777749587263679   0.124565394512286   1.0000000
B2   B   0.555637850962830   0.277695482370505   0.124603151866442   1.0000000
B2   B   0.888936382591510   0.277872765183027   0.124662944001697   1.0000000
B2   B   0.055441870563906   0.444395154822771   0.625360114078328   1.0000000
B2   B   0.222260189043364   0.944520378086730   0.625337275063148   1.0000000
B2   B   0.555460568150308   0.944396950741819   0.625337055998304   1.0000000
B2   B   0.388792033368030   0.444541299965298   0.624129526715399   1.0000000
B2   B   0.888936382591510   0.944396950741819   0.625337055998304   1.0000000
B2   B   0.055441870563906   0.944380049074463   0.124639885921671   1.0000000
B2   B   0.722347344537868   0.444565336763232   0.625482936514309   1.0000000
B2   B   0.388938178510558   0.944380049074463   0.124639885921671   1.0000000
B2   B   0.222217992225364   0.444565336763232   0.124517063485691   1.0000000
B2   B   0.222260189043364   0.611073144289970   0.124662724936853   1.0000000
B2   B   0.555749266597268   0.444541299965298   0.125870473284599   1.0000000
B2   B   0.722275075055157   0.944550150110316   0.124656932623191   1.0000000
B2   B   0.888953284258865   0.444395154822771   0.124639885921671   1.0000000
B2   B   0.055606873739140   0.611213747478280   0.625300914130694   1.0000000
B2   B   0.222217992225364   0.110985988795468   0.625482936514309   1.0000000
B2   B   0.722347344537868   0.611115341107971   0.625482936514309   1.0000000
B2   B   0.555608004169330   0.111191750238988   0.625434605487715   1.0000000
B2   B   0.888783183223013   0.111058258278178   0.625343067376808   1.0000000


