data_1
_audit_creation_method   'vasp2cif'
_cell_length_a    17.52789999999977
_cell_length_b    17.52789999999977
_cell_length_c    15.0
_cell_angle_alpha    90.0
_cell_angle_beta    90.0
_cell_angle_gamma    119.99999999999916

_symmetry_space_group_name_H-M    'P 1'
loop_
_atom_site_label
_atom_site_type_symbol
_atom_site_fract_x
_atom_site_fract_y
_atom_site_fract_z
_atom_site_occupancy
B2   B   0.904785580613010   0.952327509529831   0.109910152480348   1.0000000
B2   B   0.904652799667643   0.095091695424829   0.111191450626138   1.0000000
B2   B   0.904630711553785   0.238083455956639   0.111174558200665   1.0000000
B2   B   0.904611773649728   0.380940057499884   0.109864905874254   1.0000000
B2   B   0.904529769561376   0.523794242852765   0.109033043417431   1.0000000
B2   B   0.904497370083318   0.666519319839841   0.110567525977692   1.0000000
B2   B   0.904788060231374   0.809459082822392   0.109126864188970   1.0000000
B2   B   0.047422333043020   0.952057291023874   0.110720131012778   1.0000000
B2   B   0.047091355769988   0.094569616913328   0.111204309151171   1.0000000
B2   B   0.047316979040541   0.237807364038463   0.111190559048815   1.0000000
B2   B   0.047278928680541   0.381004646112192   0.111234626539504   1.0000000
B2   B   0.046988455676656   0.523949247341082   0.110710939076237   1.0000000
B2   B   0.047268248479926   0.666692450400572   0.110516605125102   1.0000000
B2   B   0.047424828151948   0.809386293195360   0.110522470089701   1.0000000
B2   B   0.190278691991113   0.952105111855335   0.111153984603692   1.0000000
B2   B   0.190091557075631   0.094470183613296   0.111208946055478   1.0000000
B2   B   0.189083446925863   0.236432396105660   0.110787940328342   1.0000000
B2   B   0.190035420762944   0.380843338075006   0.110839153248507   1.0000000
B2   B   0.189201914466016   0.524225462251505   0.111600728420740   1.0000000
B2   B   0.190018076359804   0.666980371421175   0.111274664092255   1.0000000
B2   B   0.190212230267309   0.809568225406978   0.111070533085962   1.0000000
B2   B   0.333285204192351   0.952396878746757   0.111130562026248   1.0000000
B2   B   0.333253655671111   0.094680041846694   0.111032430971255   1.0000000
B2   B   0.332851276420697   0.236293356540168   0.109977287754078   1.0000000
B2   B   0.330684550891580   0.376479269428019   0.108155541226410   1.0000000
B2   B   0.331104532390464   0.526151146519698   0.109757960348739   1.0000000
B2   B   0.333031648947068   0.667943221849732   0.111447473414442   1.0000000
B2   B   0.333212372610883   0.809997809650751   0.111216376420986   1.0000000
B2   B   0.476265460755064   0.952516376173362   0.111121683999546   1.0000000
B2   B   0.476283938539942   0.095446172888180   0.110739668264648   1.0000000
B2   B   0.476385963111248   0.238381252184728   0.110983740846005   1.0000000
B2   B   0.475405931414020   0.379425522926793   0.109664889573814   1.0000000
B2   B   0.480027215938336   0.526446578200124   0.109079417174178   1.0000000
B2   B   0.476423267438249   0.666570269536722   0.111035427773492   1.0000000
B2   B   0.476242377512741   0.809573361823968   0.110875620964458   1.0000000
B2   B   0.619133042867763   0.952397090935864   0.110767223658792   1.0000000
B2   B   0.619085669898799   0.095334266156408   0.110761870235330   1.0000000
B2   B   0.619279398867991   0.238443338729812   0.109328865551755   1.0000000
B2   B   0.620680888905544   0.382440534463594   0.112601174919773   1.0000000
B2   B   0.622957027596630   0.525390298411910   0.142495308975042   1.0000000
B2   B   0.622210681615533   0.667855718679807   0.112551096827141   1.0000000
B2   B   0.619593733516813   0.809605098823324   0.109337939389865   1.0000000
B2   B   0.762016506500926   0.952420952284953   0.109941575382955   1.0000000
B2   B   0.761905558907961   0.095278801105872   0.111343896202415   1.0000000
B2   B   0.761885847400731   0.238139306171154   0.109970540869306   1.0000000
B2   B   0.762083311300890   0.381097779547358   0.108670406391305   1.0000000
B2   B   0.761748750377187   0.523579989698684   0.112661542462893   1.0000000
B2   B   0.761974266750214   0.666650622357602   0.112545038882315   1.0000000
B2   B   0.762715413087709   0.809984094388994   0.108705043443781   1.0000000
C2   C   0.381113507315320   0.476075196733663   0.107142281531687   1.0000000
N2   N   0.952413980847986   0.904779681669148   0.109674144998050   1.0000000
N2   N   0.952214829246469   0.047457289076258   0.110945878267253   1.0000000
N2   N   0.952261126203177   0.190417678669704   0.111294087260439   1.0000000
N2   N   0.952267139421855   0.333259327626885   0.110879997794964   1.0000000
N2   N   0.952095336169088   0.476104296716451   0.109559302826519   1.0000000
N2   N   0.952344806567483   0.619033114928211   0.109696884355351   1.0000000
N2   N   0.952450332986036   0.761956094257031   0.109719133033297   1.0000000
N2   N   0.095238864929105   0.904699538940003   0.110901236721076   1.0000000
N2   N   0.095053559837602   0.047322578711194   0.111312337561791   1.0000000
N2   N   0.094435706737525   0.189628258701869   0.111188821889850   1.0000000
N2   N   0.095139645898560   0.333293538434725   0.111210947768856   1.0000000
N2   N   0.094432537350544   0.476253523389932   0.111435332361680   1.0000000
N2   N   0.094960341322826   0.619165809624629   0.110910115621686   1.0000000
N2   N   0.095172519949856   0.761934431559639   0.110884486353712   1.0000000
N2   N   0.238085042867749   0.904799434471919   0.111112494906248   1.0000000
N2   N   0.238078765820551   0.047371821729721   0.111217529849224   1.0000000
N2   N   0.237802014742904   0.189774645468278   0.110638001365281   1.0000000
N2   N   0.236458171726592   0.331287090022459   0.110051592002645   1.0000000
N2   N   0.236614617249290   0.476662655713989   0.111052831512350   1.0000000
N2   N   0.237748487844248   0.619495538180236   0.111557693289963   1.0000000
N2   N   0.237993306170309   0.762172962802298   0.111164475440985   1.0000000
N2   N   0.381014598702753   0.905033850966268   0.111051596144735   1.0000000
N2   N   0.381071678587041   0.047585253431242   0.111092000693153   1.0000000
N2   N   0.381046289252588   0.189936414973539   0.110551115745155   1.0000000
N2   N   0.380759583031874   0.331772245100228   0.108493065598571   1.0000000
N2   N   0.380667985565226   0.620591999232119   0.110978683497054   1.0000000
N2   N   0.381016042885831   0.762721994988810   0.111305212107385   1.0000000
N2   N   0.523858802212397   0.904747977023644   0.110975085186809   1.0000000
N2   N   0.523823899527000   0.047765924684755   0.110948453681287   1.0000000
N2   N   0.523845502221474   0.190818601819959   0.110275859275390   1.0000000
N2   N   0.524027697804771   0.334398610112797   0.112045618429042   1.0000000
N2   N   0.526138896476281   0.619468185729969   0.111870558186644   1.0000000
N2   N   0.523886634032159   0.761539841263833   0.110341388473263   1.0000000
N2   N   0.666701498412834   0.904764738241853   0.109751611283214   1.0000000
N2   N   0.666614431235945   0.047599135587276   0.111256690761193   1.0000000
N2   N   0.666606831787301   0.190526068752957   0.109779202123399   1.0000000
N2   N   0.666772315103775   0.333369872213850   0.108599733059861   1.0000000
N2   N   0.667412439116906   0.475912860863456   0.118418912465923   1.0000000
N2   N   0.667515320388533   0.619743773001733   0.118090083847812   1.0000000
N2   N   0.667689483810962   0.762726731458444   0.108639008840661   1.0000000
N2   N   0.809820695434453   0.905137104810185   0.109066430910591   1.0000000
N2   N   0.809495101324827   0.047649909175298   0.111113046122333   1.0000000
N2   N   0.809475204459441   0.190464412036206   0.111129634041110   1.0000000
N2   N   0.809531111437764   0.333205395674730   0.109091268980023   1.0000000
N2   N   0.809629587326690   0.476087917256238   0.108590087439200   1.0000000
N2   N   0.809810251042305   0.619101311952572   0.112952263822905   1.0000000
N2   N   0.809883776372911   0.762173148859623   0.108661844827541   1.0000000
O2   O   0.523657542053928   0.475069567902158   0.108538243148081   1.0000000


