data_1
_audit_creation_method   'vasp2cif'
_cell_length_a    14.93631414619966
_cell_length_b    14.936314146199727
_cell_length_c    13.341276283792837
_cell_angle_alpha    90.0
_cell_angle_beta    90.0
_cell_angle_gamma    119.99999999999984

_symmetry_space_group_name_H-M    'P 1'
loop_
_atom_site_label
_atom_site_type_symbol
_atom_site_fract_x
_atom_site_fract_y
_atom_site_fract_z
_atom_site_occupancy
C2   C   0.717221792983501   0.608904692959517   0.375000000000000   1.0000000
C2   C   0.608636273089045   0.553975813546008   0.375000000000000   1.0000000
C2   C   0.444175375748797   0.389634135476673   0.375000000000000   1.0000000
C2   C   0.551966684886914   0.445909647909422   0.375000000000000   1.0000000
N2   N   0.111101721879286   0.055573847902868   0.124926642285094   1.0000000
N2   N   0.611088284637281   0.555589067734501   0.124341572819436   1.0000000
N2   N   0.444450004248736   0.055571285621767   0.124926792465777   1.0000000
N2   N   0.944439879932119   0.555535302114723   0.124850894503693   1.0000000
N2   N   0.777795964009847   0.055583288563638   0.124888810734615   1.0000000
N2   N   0.111092197858206   0.722208672431998   0.625111090953017   1.0000000
N2   N   0.444457846928406   0.722210372121172   0.625068845326573   1.0000000
N2   N   0.277748577590735   0.222236921814125   0.625046683921980   1.0000000
N2   N   0.777816914587179   0.722328742821934   0.625647643410232   1.0000000
N2   N   0.611125687356565   0.222224456906890   0.625133502257012   1.0000000
N2   N   0.944439916547099   0.222230088875219   0.625106577543408   1.0000000
N2   N   0.277773818238951   0.722208395286396   0.124916014199701   1.0000000
N2   N   0.111069146173378   0.222209453295730   0.124878850352910   1.0000000
N2   N   0.444449473551392   0.222250511672767   0.124925444591523   1.0000000
N2   N   0.611151141434600   0.722261349024456   0.124871478642569   1.0000000
N2   N   0.944421805399863   0.722215308500019   0.124838624179074   1.0000000
N2   N   0.777791860655931   0.222227229256999   0.124910841288040   1.0000000
N2   N   0.111092667042360   0.888892086727204   0.625099977965359   1.0000000
N2   N   0.444448831030964   0.888887859642118   0.625083889549940   1.0000000
N2   N   0.277733860761919   0.388855024730045   0.625077381638116   1.0000000
N2   N   0.611099954248024   0.388873466420520   0.625407598615775   1.0000000
N2   N   0.777824588680215   0.888962177595008   0.625174582231633   1.0000000
N2   N   0.944453835947552   0.388883504019080   0.625102701006567   1.0000000
N2   N   0.111098458606535   0.388874379298930   0.124923838005411   1.0000000
N2   N   0.277771457573639   0.888892230560935   0.124910137256121   1.0000000
N2   N   0.611132411211009   0.888903669199479   0.124911690253177   1.0000000
N2   N   0.444390864121576   0.388885101574105   0.124526923967376   1.0000000
N2   N   0.944453546814987   0.888930055063821   0.124863916542675   1.0000000
N2   N   0.777785109639646   0.388884782042694   0.124861013631182   1.0000000
N2   N   0.277776696474210   0.555534125953384   0.625066723215590   1.0000000
N2   N   0.111101721879286   0.055573847902868   0.625073357714906   1.0000000
N2   N   0.611088284637281   0.555589067734501   0.625658427180564   1.0000000
N2   N   0.444450004248736   0.055571285621767   0.625073207534223   1.0000000
N2   N   0.944439879932119   0.555535302114723   0.625149105496307   1.0000000
N2   N   0.111106431664676   0.555538858503471   0.124910729768023   1.0000000
N2   N   0.777795964009847   0.055583288563638   0.625111189265385   1.0000000
N2   N   0.277772488756014   0.055574666154291   0.124917011768781   1.0000000
N2   N   0.444448040195793   0.555544957684817   0.125015894431720   1.0000000
N2   N   0.777786801095171   0.555518330498776   0.124330591493296   1.0000000
N2   N   0.611120056583614   0.055555665384892   0.124907063216854   1.0000000
N2   N   0.444448040195793   0.555544957684817   0.624984105568280   1.0000000
N2   N   0.944452057442070   0.055589035878007   0.124892849518713   1.0000000
N2   N   0.277773818238951   0.722208395286396   0.625083985800299   1.0000000
N2   N   0.111069146173378   0.222209453295730   0.625121149647090   1.0000000
N2   N   0.444449473551392   0.222250511672767   0.625074555408477   1.0000000
N2   N   0.611151141434600   0.722261349024456   0.625128521357431   1.0000000
N2   N   0.944421805399863   0.722215308500019   0.625161375820926   1.0000000
N2   N   0.777791860655931   0.222227229256999   0.625089158711961   1.0000000
N2   N   0.111092197858206   0.722208672431998   0.124888909046983   1.0000000
N2   N   0.444457846928406   0.722210372121172   0.124931154673427   1.0000000
N2   N   0.277748577590735   0.222236921814125   0.124953316078020   1.0000000
N2   N   0.777816914587179   0.722328742821934   0.124352356589769   1.0000000
N2   N   0.611125687356565   0.222224456906890   0.124866497742988   1.0000000
N2   N   0.944439916547099   0.222230088875219   0.124893422456592   1.0000000
N2   N   0.111098458606535   0.388874379298930   0.625076161994590   1.0000000
N2   N   0.277771457573639   0.888892230560935   0.625089862743879   1.0000000
N2   N   0.611132411211009   0.888903669199479   0.625088309746823   1.0000000
N2   N   0.444390864121576   0.388885101574105   0.625473076032623   1.0000000
N2   N   0.944453546814987   0.888930055063821   0.625136083457325   1.0000000
N2   N   0.111092667042360   0.888892086727204   0.124900022034641   1.0000000
N2   N   0.777785109639646   0.388884782042694   0.625138986368818   1.0000000
N2   N   0.444448831030964   0.888887859642118   0.124916110450060   1.0000000
N2   N   0.277733860761919   0.388855024730045   0.124922618361884   1.0000000
N2   N   0.277776696474210   0.555534125953384   0.124933276784411   1.0000000
N2   N   0.611099954248024   0.388873466420520   0.124592401384225   1.0000000
N2   N   0.777824588680215   0.888962177595008   0.124825417768367   1.0000000
N2   N   0.944453835947552   0.388883504019080   0.124897298993433   1.0000000
N2   N   0.111106431664676   0.555538858503471   0.625089270231977   1.0000000
N2   N   0.277772488756014   0.055574666154291   0.625082988231218   1.0000000
N2   N   0.777786801095171   0.555518330498776   0.625669408506705   1.0000000
N2   N   0.611120056583614   0.055555665384892   0.625092936783146   1.0000000
N2   N   0.944452057442070   0.055589035878007   0.625107150481287   1.0000000
N2   N   0.055798509553492   0.111294506859607   0.375000000000000   1.0000000
N2   N   0.555510114795897   0.610410625969705   0.375000000000000   1.0000000
N2   N   0.388936402781904   0.112108941692153   0.375000000000000   1.0000000
N2   N   0.889565636778091   0.610855091169450   0.375000000000000   1.0000000
N2   N   0.722057597731417   0.110913994440460   0.375000000000000   1.0000000
N2   N   0.055564597763201   0.777779984554491   0.875000000000000   1.0000000
N2   N   0.388886334358556   0.777780348584357   0.875000000000000   1.0000000
N2   N   0.222220493760648   0.277772520086071   0.875000000000000   1.0000000
N2   N   0.722216564779400   0.777776392449932   0.875000000000000   1.0000000
N2   N   0.555548349185915   0.277760724234894   0.875000000000000   1.0000000
N2   N   0.888886516179840   0.277778927775183   0.875000000000000   1.0000000
N2   N   0.222549232056263   0.777900273847142   0.375000000000000   1.0000000
N2   N   0.055664140697628   0.277832524445826   0.375000000000000   1.0000000
N2   N   0.389592649357682   0.280682482231415   0.375000000000000   1.0000000
N2   N   0.555305126228879   0.777290466581410   0.375000000000000   1.0000000
N2   N   0.889600221085977   0.778770711901998   0.375000000000000   1.0000000
N2   N   0.722227968034499   0.276748514904543   0.375000000000000   1.0000000
N2   N   0.055558057114437   0.944442521348576   0.875000000000000   1.0000000
N2   N   0.388888187679661   0.944440160704481   0.875000000000000   1.0000000
N2   N   0.222222941383142   0.444446394939095   0.875000000000000   1.0000000
N2   N   0.555552412000087   0.444437580710363   0.875000000000000   1.0000000
N2   N   0.722215934683418   0.944442018086556   0.875000000000000   1.0000000
N2   N   0.888890566942449   0.444446063945131   0.875000000000000   1.0000000
N2   N   0.056089671898378   0.444499789759852   0.375000000000000   1.0000000
N2   N   0.222569890470246   0.944733617650645   0.375000000000000   1.0000000
N2   N   0.555312048353326   0.944102405901737   0.375000000000000   1.0000000
N2   N   0.388110365309481   0.442360388115154   0.375000000000000   1.0000000
N2   N   0.889262899293716   0.945079171719565   0.375000000000000   1.0000000
N2   N   0.722786405481193   0.442209430138046   0.375000000000000   1.0000000
N2   N   0.222220849216938   0.611112894047948   0.875000000000000   1.0000000
N2   N   0.055553957588102   0.111102625941353   0.875000000000000   1.0000000
N2   N   0.555548472905207   0.611109350596053   0.875000000000000   1.0000000
N2   N   0.388886900098621   0.111098898120903   0.875000000000000   1.0000000
N2   N   0.888897411832140   0.611113259883740   0.875000000000000   1.0000000
N2   N   0.056224016479999   0.611241061366894   0.375000000000000   1.0000000
N2   N   0.722213072727819   0.111105548767488   0.875000000000000   1.0000000
N2   N   0.223159820809755   0.112015080099878   0.375000000000000   1.0000000
N2   N   0.389158088652200   0.610221282663081   0.375000000000000   1.0000000
N2   N   0.555320815045345   0.110587624916975   0.375000000000000   1.0000000
N2   N   0.388886869414620   0.611112261518302   0.875000000000000   1.0000000
N2   N   0.889007092780317   0.111274201952636   0.375000000000000   1.0000000
N2   N   0.222225643115476   0.777778787449126   0.875000000000000   1.0000000
N2   N   0.055554175082647   0.277777082173343   0.875000000000000   1.0000000
N2   N   0.388888498238784   0.277770334818877   0.875000000000000   1.0000000
N2   N   0.555547606413629   0.777778232534258   0.875000000000000   1.0000000
N2   N   0.888894725709877   0.777777286359243   0.875000000000000   1.0000000
N2   N   0.722216982775979   0.277772394404323   0.875000000000000   1.0000000
N2   N   0.055878219178934   0.777946654201018   0.375000000000000   1.0000000
N2   N   0.388986671953516   0.777517263006820   0.375000000000000   1.0000000
N2   N   0.221772642399954   0.277573961752732   0.375000000000000   1.0000000
N2   N   0.722321062013572   0.780187542334956   0.375000000000000   1.0000000
N2   N   0.555605140991847   0.276981588289441   0.375000000000000   1.0000000
N2   N   0.889083294082508   0.277662710157793   0.375000000000000   1.0000000
N2   N   0.055555356605647   0.444447475098293   0.875000000000000   1.0000000
N2   N   0.222225612024663   0.944441406185744   0.875000000000000   1.0000000
N2   N   0.555546984599851   0.944441471515794   0.875000000000000   1.0000000
N2   N   0.388889187720330   0.444444696010504   0.875000000000000   1.0000000
N2   N   0.888889817475148   0.944440048750965   0.875000000000000   1.0000000
N2   N   0.056343850454373   0.945147386325022   0.375000000000000   1.0000000
N2   N   0.722218402957542   0.444435693936533   0.875000000000000   1.0000000
N2   N   0.388926560894387   0.944666880350888   0.375000000000000   1.0000000
N2   N   0.222585429748837   0.444470444093151   0.375000000000000   1.0000000
N2   N   0.222695815717574   0.611113698972907   0.375000000000000   1.0000000
N2   N   0.722044336551082   0.945154448389552   0.375000000000000   1.0000000
N2   N   0.889569953870647   0.444175237293846   0.375000000000000   1.0000000
N2   N   0.055558619255597   0.611111476795937   0.875000000000000   1.0000000
N2   N   0.222222752732517   0.111104552255351   0.875000000000000   1.0000000
N2   N   0.722218672085915   0.611106974780066   0.875000000000000   1.0000000
N2   N   0.555546649097877   0.111097763082938   0.875000000000000   1.0000000
N2   N   0.888886475819591   0.111106627388076   0.875000000000000   1.0000000
B2   B   0.111833081960083   0.056103250090126   0.375000000000000   1.0000000
B2   B   0.444317012614760   0.056093348127194   0.375000000000000   1.0000000
B2   B   0.944621585049047   0.555822032960154   0.375000000000000   1.0000000
B2   B   0.777747243754701   0.055728308592078   0.375000000000000   1.0000000
B2   B   0.111082560519891   0.722216427294964   0.875000000000000   1.0000000
B2   B   0.444463269724821   0.722210229089346   0.875000000000000   1.0000000
B2   B   0.277820295575073   0.222242091660896   0.875000000000000   1.0000000
B2   B   0.777743726971921   0.722156235270198   0.875000000000000   1.0000000
B2   B   0.611101255528413   0.222253545484269   0.875000000000000   1.0000000
B2   B   0.944434483608820   0.222219197936802   0.875000000000000   1.0000000
B2   B   0.277964447096465   0.722221101505847   0.375000000000000   1.0000000
B2   B   0.111180851602169   0.222226042178758   0.375000000000000   1.0000000
B2   B   0.445029844013080   0.224056490303121   0.375000000000000   1.0000000
B2   B   0.611755992528311   0.721914006581841   0.375000000000000   1.0000000
B2   B   0.943755441978708   0.721843593624280   0.375000000000000   1.0000000
B2   B   0.777800372164495   0.221885394556522   0.375000000000000   1.0000000
B2   B   0.111088024315982   0.888867202802780   0.875000000000000   1.0000000
B2   B   0.444444900082312   0.888885903405975   0.875000000000000   1.0000000
B2   B   0.277830830222555   0.388905495826684   0.875000000000000   1.0000000
B2   B   0.611116617092230   0.388928615994586   0.875000000000000   1.0000000
B2   B   0.777756883898825   0.888825823672973   0.875000000000000   1.0000000
B2   B   0.944420863023337   0.388910167669309   0.875000000000000   1.0000000
B2   B   0.111526943661814   0.388957844549509   0.375000000000000   1.0000000
B2   B   0.277878777630822   0.889015318080341   0.375000000000000   1.0000000
B2   B   0.610949667094116   0.888447918958292   0.375000000000000   1.0000000
B2   B   0.944725102428549   0.888909693074651   0.375000000000000   1.0000000
B2   B   0.778126433340253   0.387997696355778   0.375000000000000   1.0000000
B2   B   0.277802579993193   0.555561611972931   0.875000000000000   1.0000000
B2   B   0.111110255529054   0.055535800455998   0.875000000000000   1.0000000
B2   B   0.611141131547785   0.555548563771301   0.875000000000000   1.0000000
B2   B   0.444447297439324   0.055569600708299   0.875000000000000   1.0000000
B2   B   0.944401408286724   0.555570108945940   0.875000000000000   1.0000000
B2   B   0.111482999924982   0.555679012806687   0.375000000000000   1.0000000
B2   B   0.777762129121517   0.055532936375268   0.875000000000000   1.0000000
B2   B   0.278100549939834   0.055975660748660   0.375000000000000   1.0000000
B2   B   0.444714376939535   0.554161687467116   0.375000000000000   1.0000000
B2   B   0.776613281830598   0.553839664412065   0.375000000000000   1.0000000
B2   B   0.610897740444719   0.055233086887578   0.375000000000000   1.0000000
B2   B   0.444498226156664   0.555554903467473   0.875000000000000   1.0000000
B2   B   0.944611552898105   0.055603240514421   0.375000000000000   1.0000000
B2   B   0.277777028879816   0.722223325411855   0.875000000000000   1.0000000
B2   B   0.111127033605957   0.222217554566655   0.875000000000000   1.0000000
B2   B   0.444471624253996   0.222257266623436   0.875000000000000   1.0000000
B2   B   0.611124001383721   0.722179843568486   0.875000000000000   1.0000000
B2   B   0.944397095875631   0.722192832149293   0.875000000000000   1.0000000
B2   B   0.777756448016243   0.222237862271147   0.875000000000000   1.0000000
B2   B   0.111188356121075   0.722341737611528   0.375000000000000   1.0000000
B2   B   0.444592406678153   0.721646742532847   0.375000000000000   1.0000000
B2   B   0.278694290955332   0.223408417911637   0.375000000000000   1.0000000
B2   B   0.776851982162812   0.722762541187301   0.375000000000000   1.0000000
B2   B   0.610957964840414   0.221804077465571   0.375000000000000   1.0000000
B2   B   0.944594119146357   0.222242534175888   0.375000000000000   1.0000000
B2   B   0.111120999292052   0.388900062116245   0.875000000000000   1.0000000
B2   B   0.277770759147513   0.888888295223018   0.875000000000000   1.0000000
B2   B   0.611108561550016   0.888861442188112   0.875000000000000   1.0000000
B2   B   0.444511660493486   0.388923790233270   0.875000000000000   1.0000000
B2   B   0.944409092701493   0.888829695094669   0.875000000000000   1.0000000
B2   B   0.111239994275088   0.888917253736245   0.375000000000000   1.0000000
B2   B   0.777745115578508   0.388924972257137   0.875000000000000   1.0000000
B2   B   0.444355350293703   0.888792384065638   0.375000000000000   1.0000000
B2   B   0.277830557959663   0.388512816198528   0.375000000000000   1.0000000
B2   B   0.278175436750752   0.555414081182047   0.375000000000000   1.0000000
B2   B   0.611999772258976   0.388818701531572   0.375000000000000   1.0000000
B2   B   0.777726590496302   0.889703120090086   0.375000000000000   1.0000000
B2   B   0.944802665404578   0.388931250997182   0.375000000000000   1.0000000
B2   B   0.111097175327257   0.555565755927656   0.875000000000000   1.0000000
B2   B   0.277788413128667   0.055562056824984   0.875000000000000   1.0000000
B2   B   0.777739706281498   0.555563289408215   0.875000000000000   1.0000000
B2   B   0.611099473137921   0.055556361162968   0.875000000000000   1.0000000
B2   B   0.944430231914172   0.055515882721219   0.875000000000000   1.0000000
B2   B   0.055528827518640   0.111103709515707   0.125079803863397   1.0000000
B2   B   0.555742480207652   0.611029488242478   0.125274480716197   1.0000000
B2   B   0.388943613717064   0.111261566862481   0.125136151526137   1.0000000
B2   B   0.888634852432986   0.611027205021637   0.125235267495996   1.0000000
B2   B   0.722254034671161   0.111141796906010   0.125068161922550   1.0000000
B2   B   0.055356480036730   0.777686828709562   0.624839068206166   1.0000000
B2   B   0.388923788462930   0.777735102145369   0.624939327023407   1.0000000
B2   B   0.222246496019502   0.277799252965332   0.624896377624917   1.0000000
B2   B   0.722301162329117   0.777675273878276   0.624821979276069   1.0000000
B2   B   0.555647137021840   0.278023113038038   0.624843851047188   1.0000000
B2   B   0.888880536664721   0.277802950185342   0.624924046066690   1.0000000
B2   B   0.222147116056496   0.777741332600672   0.125071013754037   1.0000000
B2   B   0.055547269543689   0.277762232461436   0.125061167554675   1.0000000
B2   B   0.389011581533141   0.277986789265087   0.125213960862239   1.0000000
B2   B   0.555675850762518   0.777698182237593   0.125146131196744   1.0000000
B2   B   0.888686760026011   0.777649444200369   0.125224692285159   1.0000000
B2   B   0.722231750761427   0.277887927817898   0.125124657520490   1.0000000
B2   B   0.055453552974593   0.944397761328301   0.624869707177087   1.0000000
B2   B   0.388899084843422   0.944479711518688   0.624934325558799   1.0000000
B2   B   0.222255398726863   0.444401760387563   0.624898087923399   1.0000000
B2   B   0.555653186023979   0.444636664978341   0.624213784824486   1.0000000
B2   B   0.722282547705279   0.944402972014105   0.624899215994878   1.0000000
B2   B   0.888805849197228   0.444474015125846   0.624851758538619   1.0000000
B2   B   0.055518558954423   0.444426293595432   0.125076327261132   1.0000000
B2   B   0.222161696245043   0.944455838537011   0.125078526274818   1.0000000
B2   B   0.555610472457146   0.944438150652108   0.125065810826964   1.0000000
B2   B   0.389017733962571   0.444420580048352   0.125234273185229   1.0000000
B2   B   0.888858401287682   0.944388864129744   0.125132794582911   1.0000000
B2   B   0.722170745418272   0.444601786082803   0.125210571878491   1.0000000
B2   B   0.222208697046705   0.611061526810243   0.624936650046755   1.0000000
B2   B   0.055528827518640   0.111103709515707   0.624920196136604   1.0000000
B2   B   0.555742480207652   0.611029488242478   0.624725519283803   1.0000000
B2   B   0.388943613717064   0.111261566862481   0.624863848473863   1.0000000
B2   B   0.888634852432986   0.611027205021637   0.624764732504004   1.0000000
B2   B   0.055424710447276   0.611061154519395   0.125118982533886   1.0000000
B2   B   0.722254034671161   0.111141796906010   0.624931838077450   1.0000000
B2   B   0.222230589566009   0.111178243253431   0.125127844156885   1.0000000
B2   B   0.388988459019810   0.611034875322026   0.125145788081635   1.0000000
B2   B   0.722155099267060   0.611088151172871   0.126259516153061   1.0000000
B2   B   0.555610753865907   0.111219404631020   0.125082391065906   1.0000000
B2   B   0.388988459019810   0.611034875322026   0.624854211918365   1.0000000
B2   B   0.888897118799963   0.111100842043834   0.125070117449097   1.0000000
B2   B   0.222147116056496   0.777741332600672   0.624928986245963   1.0000000
B2   B   0.055547269543689   0.277762232461436   0.624938832445325   1.0000000
B2   B   0.389011581533141   0.277986789265087   0.624786039137760   1.0000000
B2   B   0.555675850762518   0.777698182237593   0.624853868803256   1.0000000
B2   B   0.888686760026011   0.777649444200369   0.624775307714841   1.0000000
B2   B   0.722231750761427   0.277887927817898   0.624875342479510   1.0000000
B2   B   0.055356480036730   0.777686828709562   0.125160931793835   1.0000000
B2   B   0.388923788462930   0.777735102145369   0.125060672976593   1.0000000
B2   B   0.222246496019502   0.277799252965332   0.125103622375083   1.0000000
B2   B   0.722301162329117   0.777675273878276   0.125178020723931   1.0000000
B2   B   0.555647137021840   0.278023113038038   0.125156148952812   1.0000000
B2   B   0.888880536664721   0.277802950185342   0.125075953933310   1.0000000
B2   B   0.055518558954423   0.444426293595432   0.624923672738868   1.0000000
B2   B   0.222161696245043   0.944455838537011   0.624921473725182   1.0000000
B2   B   0.555610472457146   0.944438150652108   0.624934189173036   1.0000000
B2   B   0.389017733962571   0.444420580048352   0.624765726814771   1.0000000
B2   B   0.888858401287682   0.944388864129744   0.624867205417089   1.0000000
B2   B   0.055453552974593   0.944397761328301   0.125130292822913   1.0000000
B2   B   0.722170745418272   0.444601786082803   0.624789428121509   1.0000000
B2   B   0.388899084843422   0.944479711518688   0.125065674441201   1.0000000
B2   B   0.222255398726863   0.444401760387563   0.125101912076601   1.0000000
B2   B   0.222208697046705   0.611061526810243   0.125063349953245   1.0000000
B2   B   0.555653186023979   0.444636664978341   0.125786215175514   1.0000000
B2   B   0.722282547705279   0.944402972014105   0.125100784005122   1.0000000
B2   B   0.888805849197228   0.444474015125846   0.125148241461381   1.0000000
B2   B   0.055424710447276   0.611061154519395   0.624881017466114   1.0000000
B2   B   0.222230589566009   0.111178243253431   0.624872155843115   1.0000000
B2   B   0.722155099267060   0.611088151172871   0.623740483846939   1.0000000
B2   B   0.555610753865907   0.111219404631020   0.624917608934093   1.0000000
B2   B   0.888897118799963   0.111100842043834   0.624929882550903   1.0000000


