data_1
_audit_creation_method   'vasp2cif'
_cell_length_a    17.52789999999977
_cell_length_b    17.52789999999977
_cell_length_c    15.0
_cell_angle_alpha    90.0
_cell_angle_beta    90.0
_cell_angle_gamma    119.99999999999916

_symmetry_space_group_name_H-M    'P 1'
loop_
_atom_site_label
_atom_site_type_symbol
_atom_site_fract_x
_atom_site_fract_y
_atom_site_fract_z
_atom_site_occupancy
As2   As   0.522816237770900   0.491056166008129   0.110770695237117   1.0000000
B2   B   0.906832351737802   0.953651663882160   0.111007363025652   1.0000000
B2   B   0.903416715584155   0.093897106734365   0.111055685117439   1.0000000
B2   B   0.902719876255629   0.236142221004596   0.111051560490407   1.0000000
B2   B   0.903591766198964   0.379425986630451   0.111000067342124   1.0000000
B2   B   0.907218503403725   0.523714748364486   0.111010055818872   1.0000000
B2   B   0.910933983498159   0.668707983149052   0.111003972798394   1.0000000
B2   B   0.911231482821066   0.813388124573236   0.111013437968234   1.0000000
B2   B   0.049989587202014   0.953943807841536   0.110989052498047   1.0000000
B2   B   0.047655530492971   0.095489123760291   0.110986835702996   1.0000000
B2   B   0.045221618215464   0.236544052409208   0.110977863672661   1.0000000
B2   B   0.044723206167084   0.379269122232911   0.110975304186984   1.0000000
B2   B   0.046294770918843   0.523257707793921   0.111007840573082   1.0000000
B2   B   0.049454360309910   0.667494056487994   0.111030236716398   1.0000000
B2   B   0.050882748838203   0.811284404481807   0.111033771965149   1.0000000
B2   B   0.191809041126224   0.953189291579747   0.111033853588560   1.0000000
B2   B   0.189904605949663   0.094749437904515   0.111057255084345   1.0000000
B2   B   0.189011755257494   0.238074781823534   0.111042106130723   1.0000000
B2   B   0.186054964631016   0.379192977437588   0.110997056881519   1.0000000
B2   B   0.185373402871026   0.523029541911568   0.110991623691340   1.0000000
B2   B   0.188823178768698   0.666919360036909   0.111051762279493   1.0000000
B2   B   0.191470203610734   0.810347769371243   0.111018930206245   1.0000000
B2   B   0.333625039720948   0.952360780881253   0.111052010477305   1.0000000
B2   B   0.333284011255846   0.094878939722208   0.111107612504142   1.0000000
B2   B   0.329325536615768   0.234942081408731   0.111076333083063   1.0000000
B2   B   0.330866823675716   0.382722533542685   0.111067480249959   1.0000000
B2   B   0.322640458778246   0.522603836872228   0.111062655822600   1.0000000
B2   B   0.328248861162225   0.666848702160084   0.111049713235977   1.0000000
B2   B   0.332608827748653   0.809578169522669   0.111030620683659   1.0000000
B2   B   0.475447023958282   0.950180613947835   0.111030728613626   1.0000000
B2   B   0.475842957136540   0.093549760317211   0.111080063946857   1.0000000
B2   B   0.475535065075635   0.235733368790663   0.111057422354899   1.0000000
B2   B   0.466849453055894   0.368807477355201   0.111008482105904   1.0000000
B2   B   0.464858355100043   0.554370639568299   0.111071964549783   1.0000000
B2   B   0.466233137006910   0.657254918142454   0.111065967570077   1.0000000
B2   B   0.473929464327978   0.805429270660099   0.111006375127026   1.0000000
B2   B   0.617220118687557   0.949768224780654   0.111059531195582   1.0000000
B2   B   0.617951497327585   0.093179637434601   0.111057240036246   1.0000000
B2   B   0.618535084927214   0.236495745087182   0.110983586667678   1.0000000
B2   B   0.619873370354892   0.380139923492519   0.110986313346922   1.0000000
B2   B   0.640109856445441   0.532813501896832   0.110979850976081   1.0000000
B2   B   0.646305566689753   0.677930900524165   0.111109895419409   1.0000000
B2   B   0.615619933586109   0.806636108194046   0.111032819422796   1.0000000
B2   B   0.760745017116634   0.950857988337478   0.111067947989596   1.0000000
B2   B   0.760193837907373   0.093102071148957   0.111099865842863   1.0000000
B2   B   0.760641467433451   0.236119269005513   0.111037914864680   1.0000000
B2   B   0.762264082075442   0.379619307158274   0.110962470590765   1.0000000
B2   B   0.769155955822332   0.524542306286758   0.110977304491620   1.0000000
B2   B   0.776806283426734   0.673548691633671   0.111021071181880   1.0000000
B2   B   0.767993654910012   0.812755071189035   0.111049757326609   1.0000000
N2   N   0.955269131681840   0.907048781457345   0.110973282186772   1.0000000
N2   N   0.952374899149118   0.047710256921069   0.110990421576109   1.0000000
N2   N   0.950228533329323   0.188600792295826   0.111013639405120   1.0000000
N2   N   0.950071220663062   0.331239630345662   0.110991684238583   1.0000000
N2   N   0.952041750726851   0.474830411528625   0.110994351129306   1.0000000
N2   N   0.955147533547948   0.619248888113009   0.111000295506474   1.0000000
N2   N   0.956252342352316   0.763795202532435   0.111011570510099   1.0000000
N2   N   0.097044808244065   0.906030442291630   0.110997408811614   1.0000000
N2   N   0.095442005277961   0.048132633311007   0.110982171293748   1.0000000
N2   N   0.094055412924616   0.190282133931139   0.110975982258267   1.0000000
N2   N   0.091779703062412   0.331355107724732   0.110953742563090   1.0000000
N2   N   0.091662121285913   0.474557259097901   0.110961034599106   1.0000000
N2   N   0.094578646647725   0.618628619437929   0.111019406186379   1.0000000
N2   N   0.096820981082421   0.762668333131526   0.111013971964284   1.0000000
N2   N   0.238862848062517   0.905270323116157   0.111005523665424   1.0000000
N2   N   0.238380499031982   0.047994629100947   0.111061461502710   1.0000000
N2   N   0.235558663005468   0.189229636808101   0.111052163324441   1.0000000
N2   N   0.235887501221284   0.333778796072658   0.111022104865283   1.0000000
N2   N   0.230478029910599   0.474051297017536   0.110989393306548   1.0000000
N2   N   0.234210337291201   0.618290975107826   0.111020632326166   1.0000000
N2   N   0.237842535743532   0.762029948271466   0.111023238664568   1.0000000
N2   N   0.380724503859044   0.904228692536662   0.111012580124852   1.0000000
N2   N   0.380976376863376   0.047281942367671   0.111087813479616   1.0000000
N2   N   0.380106878258077   0.189988518703740   0.111071046563166   1.0000000
N2   N   0.374397979325293   0.329594517880824   0.111047489227101   1.0000000
N2   N   0.374040990330186   0.480384325032068   0.111072844711309   1.0000000
N2   N   0.372955678308524   0.617897176343314   0.111051440687970   1.0000000
N2   N   0.379264605745201   0.761112024003590   0.111006289022436   1.0000000
N2   N   0.522369442235780   0.901011152587754   0.111003134478279   1.0000000
N2   N   0.523093488442288   0.045419833467710   0.111038376729903   1.0000000
N2   N   0.523418889865075   0.188789012767380   0.111019983085304   1.0000000
N2   N   0.523306170874912   0.331249461817330   0.111003902043243   1.0000000
N2   N   0.520384047427285   0.754043373644147   0.111008277607971   1.0000000
N2   N   0.664562601833418   0.901080605474002   0.111033586230876   1.0000000
N2   N   0.665049359595212   0.044825554667205   0.111064629811582   1.0000000
N2   N   0.665612582585020   0.188531236861268   0.111003008346899   1.0000000
N2   N   0.666643123700687   0.332278407340593   0.110942369968438   1.0000000
N2   N   0.674744949534598   0.476871024236596   0.110965088310570   1.0000000
N2   N   0.682864861216424   0.626347928175593   0.111038241920385   1.0000000
N2   N   0.668664226293843   0.762794709414375   0.111036030458037   1.0000000
N2   N   0.810852067406166   0.905434964130303   0.111026211640616   1.0000000
N2   N   0.807813562731244   0.045356892070872   0.111070504189771   1.0000000
N2   N   0.807668691430080   0.188125192785559   0.111066413902048   1.0000000
N2   N   0.808542555299116   0.331444340701349   0.110979524201915   1.0000000
N2   N   0.812768002181260   0.475349912959014   0.110958071046198   1.0000000
N2   N   0.816746722642983   0.620711301570005   0.110971066270457   1.0000000
N2   N   0.816570871931837   0.766570102551053   0.111013419081556   1.0000000


