data_1
_audit_creation_method   'vasp2cif'
_cell_length_a    14.93631414619966
_cell_length_b    14.936314146199727
_cell_length_c    13.341276283792837
_cell_angle_alpha    90.0
_cell_angle_beta    90.0
_cell_angle_gamma    119.99999999999984

_symmetry_space_group_name_H-M    'P 1'
loop_
_atom_site_label
_atom_site_type_symbol
_atom_site_fract_x
_atom_site_fract_y
_atom_site_fract_z
_atom_site_occupancy
Ge2   Ge   0.473810542749799   0.403571938041563   0.375000000000000   1.0000000
N2   N   0.111192473251862   0.055577793121715   0.124980703170707   1.0000000
N2   N   0.611204087300342   0.555632418337683   0.127717087755072   1.0000000
N2   N   0.444472793032650   0.055548370482218   0.125127324416388   1.0000000
N2   N   0.944513490099194   0.555596539441395   0.125326763390269   1.0000000
N2   N   0.777830797400002   0.055582065366668   0.125114984339874   1.0000000
N2   N   0.111164387648949   0.722248860491138   0.624818273606541   1.0000000
N2   N   0.444472793032650   0.722257755883769   0.624872675583613   1.0000000
N2   N   0.277890830424161   0.222261169540042   0.624175455323168   1.0000000
N2   N   0.777847414612643   0.722248772622064   0.624396031197394   1.0000000
N2   N   0.611142819988263   0.222231596992595   0.624483337287785   1.0000000
N2   N   0.944527867585176   0.222271627855737   0.624883498283661   1.0000000
N2   N   0.277814106202783   0.722253750072886   0.125153508239088   1.0000000
N2   N   0.111231003830054   0.222282168581691   0.125077695554177   1.0000000
N2   N   0.444501231132180   0.222232665489548   0.126330997007476   1.0000000
N2   N   0.611142819988263   0.722244556328995   0.125516662712215   1.0000000
N2   N   0.944513490099194   0.722250283991134   0.125326763390269   1.0000000
N2   N   0.777828309833905   0.222259658669909   0.125193418387931   1.0000000
N2   N   0.111168014746739   0.888899480777740   0.624858658656763   1.0000000
N2   N   0.444470254160668   0.888901793746999   0.624858844383425   1.0000000
N2   N   0.277890830424161   0.388962994217448   0.624175455323168   1.0000000
N2   N   0.611204087300342   0.388905002295990   0.622282912244927   1.0000000
N2   N   0.777828309833905   0.888901984497326   0.624806581612069   1.0000000
N2   N   0.944517132274715   0.388938141733509   0.624833046889027   1.0000000
N2   N   0.111192473251862   0.388948013463476   0.124980703170707   1.0000000
N2   N   0.277814106202783   0.888893689463227   0.125153508239088   1.0000000
N2   N   0.611139867632950   0.888906947244248   0.125116418745218   1.0000000
N2   N   0.444619600290088   0.388976466811708   0.132004759694547   1.0000000
N2   N   0.944517132274715   0.888912323874534   0.125166953110973   1.0000000
N2   N   0.777847414612643   0.388931975323906   0.125603968802608   1.0000000
N2   N   0.277829675185428   0.555608549777793   0.624855712866880   1.0000000
N2   N   0.111192473251862   0.055577793121715   0.625019296829294   1.0000000
N2   N   0.611204087300342   0.555632418337683   0.622282912244927   1.0000000
N2   N   0.444472793032650   0.055548370482218   0.624872675583613   1.0000000
N2   N   0.944513490099194   0.555596539441395   0.624673236609732   1.0000000
N2   N   0.111168014746739   0.555601867302328   0.125141341343237   1.0000000
N2   N   0.777830797400002   0.055582065366668   0.624885015660126   1.0000000
N2   N   0.277829675185428   0.055554458740969   0.125144287133120   1.0000000
N2   N   0.444501231132180   0.555601898975969   0.126330997007476   1.0000000
N2   N   0.777849531214433   0.555591432273883   0.126091378324350   1.0000000
N2   N   0.611139867632950   0.055566253722031   0.125116418745218   1.0000000
N2   N   0.444501231132180   0.555601898975969   0.623669002992525   1.0000000
N2   N   0.944527867585176   0.055589573062774   0.125116501716337   1.0000000
N2   N   0.277814106202783   0.722253750072886   0.624846491760910   1.0000000
N2   N   0.111231003830054   0.222282168581691   0.624922304445822   1.0000000
N2   N   0.444501231132180   0.222232665489548   0.623669002992525   1.0000000
N2   N   0.611142819988263   0.722244556328995   0.624483337287785   1.0000000
N2   N   0.944513490099194   0.722250283991134   0.624673236609732   1.0000000
N2   N   0.777828309833905   0.222259658669909   0.624806581612069   1.0000000
N2   N   0.111164387648949   0.722248860491138   0.125181726393459   1.0000000
N2   N   0.444472793032650   0.722257755883769   0.125127324416388   1.0000000
N2   N   0.277890830424161   0.222261169540042   0.125824544676832   1.0000000
N2   N   0.777847414612643   0.722248772622064   0.125603968802608   1.0000000
N2   N   0.611142819988263   0.222231596992595   0.125516662712215   1.0000000
N2   N   0.944527867585176   0.222271627855737   0.125116501716337   1.0000000
N2   N   0.111192473251862   0.388948013463476   0.625019296829294   1.0000000
N2   N   0.277814106202783   0.888893689463227   0.624846491760910   1.0000000
N2   N   0.611139867632950   0.888906947244248   0.624883581254781   1.0000000
N2   N   0.444619600290088   0.388976466811708   0.617995240305454   1.0000000
N2   N   0.944517132274715   0.888912323874534   0.624833046889027   1.0000000
N2   N   0.111168014746739   0.888899480777740   0.125141341343237   1.0000000
N2   N   0.777847414612643   0.388931975323906   0.624396031197394   1.0000000
N2   N   0.444470254160668   0.888901793746999   0.125141155616575   1.0000000
N2   N   0.277890830424161   0.388962994217448   0.125824544676832   1.0000000
N2   N   0.277829675185428   0.555608549777793   0.125144287133120   1.0000000
N2   N   0.611204087300342   0.388905002295990   0.127717087755072   1.0000000
N2   N   0.777828309833905   0.888901984497326   0.125193418387931   1.0000000
N2   N   0.944517132274715   0.388938141733509   0.125166953110973   1.0000000
N2   N   0.111168014746739   0.555601867302328   0.624858658656763   1.0000000
N2   N   0.277829675185428   0.055554458740969   0.624855712866880   1.0000000
N2   N   0.777849531214433   0.555591432273883   0.623908621675650   1.0000000
N2   N   0.611139867632950   0.055566253722031   0.624883581254781   1.0000000
N2   N   0.944527867585176   0.055589573062774   0.624883498283661   1.0000000
N2   N   0.057509398420251   0.112162568633279   0.375000000000000   1.0000000
N2   N   0.555303443447627   0.614179851337230   0.375000000000000   1.0000000
N2   N   0.388742385525470   0.106750354534428   0.375000000000000   1.0000000
N2   N   0.888719148867005   0.611026241100175   0.375000000000000   1.0000000
N2   N   0.724084561213856   0.111658584042931   0.375000000000000   1.0000000
N2   N   0.055522246359959   0.777764907620808   0.875000000000000   1.0000000
N2   N   0.388876073272123   0.777766582031154   0.875000000000000   1.0000000
N2   N   0.222193075299159   0.277763204316247   0.875000000000000   1.0000000
N2   N   0.722202081671055   0.777770103438642   0.875000000000000   1.0000000
N2   N   0.555534299066202   0.277773519509490   0.875000000000000   1.0000000
N2   N   0.888867659433324   0.277763950418040   0.875000000000000   1.0000000
N2   N   0.222122775782679   0.777728054558006   0.375000000000000   1.0000000
N2   N   0.057509398420251   0.278680163120309   0.375000000000000   1.0000000
N2   N   0.389027174156170   0.269620102340870   0.375000000000000   1.0000000
N2   N   0.556699052233774   0.780072653324078   0.375000000000000   1.0000000
N2   N   0.889586549391788   0.778291065577914   0.375000000000000   1.0000000
N2   N   0.723662981503015   0.277621873970939   0.375000000000000   1.0000000
N2   N   0.055527044208789   0.944436584789530   0.875000000000000   1.0000000
N2   N   0.388876073272123   0.944442824574306   0.875000000000000   1.0000000
N2   N   0.222195127176176   0.444420348441982   0.875000000000000   1.0000000
N2   N   0.555517259517156   0.444425296425242   0.875000000000000   1.0000000
N2   N   0.722208807940388   0.944439605189814   0.875000000000000   1.0000000
N2   N   0.888860455201086   0.444424345635608   0.875000000000000   1.0000000
N2   N   0.056248378216374   0.445016676971131   0.375000000000000   1.0000000
N2   N   0.222063610868366   0.943398133580793   0.375000000000000   1.0000000
N2   N   0.556908818360659   0.945121075846993   0.375000000000000   1.0000000
N2   N   0.389027174156170   0.452740405148637   0.375000000000000   1.0000000
N2   N   0.890575999953896   0.945611423899489   0.375000000000000   1.0000000
N2   N   0.722678398843497   0.444927584179295   0.375000000000000   1.0000000
N2   N   0.222199045043202   0.611089454562363   0.875000000000000   1.0000000
N2   N   0.055525885008271   0.111098826824075   0.875000000000000   1.0000000
N2   N   0.555534299066202   0.611094112890046   0.875000000000000   1.0000000
N2   N   0.388875039657870   0.111118252321082   0.875000000000000   1.0000000
N2   N   0.888848785328948   0.611091059331146   0.875000000000000   1.0000000
N2   N   0.055413241052372   0.611221632178874   0.375000000000000   1.0000000
N2   N   0.722208807940388   0.111102536083911   0.875000000000000   1.0000000
N2   N   0.222863559872487   0.110357997826058   0.375000000000000   1.0000000
N2   N   0.388742385525470   0.615325364324384   0.375000000000000   1.0000000
N2   N   0.722678398843497   0.611084147997537   0.375000000000000   1.0000000
N2   N   0.556699052233774   0.109959732243032   0.375000000000000   1.0000000
N2   N   0.388875039657870   0.611090120670130   0.875000000000000   1.0000000
N2   N   0.890897010380897   0.112115171857119   0.375000000000000   1.0000000
N2   N   0.222200152537855   0.777766742935596   0.875000000000000   1.0000000
N2   N   0.055525885008271   0.277760391517532   0.875000000000000   1.0000000
N2   N   0.388870872105352   0.277783993607582   0.875000000000000   1.0000000
N2   N   0.555542947913724   0.777769378738022   0.875000000000000   1.0000000
N2   N   0.888860455201086   0.777769442898812   0.875000000000000   1.0000000
N2   N   0.722202081671055   0.277765311565751   0.875000000000000   1.0000000
N2   N   0.055413241052372   0.777524942206831   0.375000000000000   1.0000000
N2   N   0.389309303197349   0.779228463792581   0.375000000000000   1.0000000
N2   N   0.225077278866811   0.279205306100073   0.375000000000000   1.0000000
N2   N   0.723662981503015   0.779374440865410   0.375000000000000   1.0000000
N2   N   0.555303443447627   0.274456925443732   0.375000000000000   1.0000000
N2   N   0.890575999953896   0.278297909387743   0.375000000000000   1.0000000
N2   N   0.055527044208789   0.444423792752586   0.875000000000000   1.0000000
N2   N   0.222199045043202   0.944442923814174   0.875000000000000   1.0000000
N2   N   0.555543524271435   0.944438428802382   0.875000000000000   1.0000000
N2   N   0.388870872105352   0.444420211831106   0.875000000000000   1.0000000
N2   N   0.888867659433324   0.944437042348620   0.875000000000000   1.0000000
N2   N   0.056248378216374   0.944565034578573   0.375000000000000   1.0000000
N2   N   0.722186586092926   0.444424753491905   0.875000000000000   1.0000000
N2   N   0.389309303197349   0.943414172738103   0.375000000000000   1.0000000
N2   N   0.222863559872487   0.445838895379765   0.375000000000000   1.0000000
N2   N   0.222063610868366   0.611998810620909   0.375000000000000   1.0000000
N2   N   0.724084561213856   0.945759310504260   0.375000000000000   1.0000000
N2   N   0.889586549391788   0.444628817147209   0.375000000000000   1.0000000
N2   N   0.055522246359959   0.611090672072487   0.875000000000000   1.0000000
N2   N   0.222195127176176   0.111108112067530   0.875000000000000   1.0000000
N2   N   0.722186586092926   0.611095165934356   0.875000000000000   1.0000000
N2   N   0.555542947913724   0.111106902509040   0.875000000000000   1.0000000
N2   N   0.888871149239860   0.111102241286601   0.875000000000000   1.0000000
B2   B   0.111621221075815   0.055424429793974   0.375000000000000   1.0000000
B2   B   0.618429772382184   0.572167304136776   0.375000000000000   1.0000000
B2   B   0.445357780595458   0.052803906589982   0.375000000000000   1.0000000
B2   B   0.945232092582146   0.555710642273729   0.375000000000000   1.0000000
B2   B   0.780108224632354   0.056720778982845   0.375000000000000   1.0000000
B2   B   0.111101930369541   0.722217631851434   0.875000000000000   1.0000000
B2   B   0.444421875718403   0.722261518529476   0.875000000000000   1.0000000
B2   B   0.277641165027776   0.222137669469720   0.875000000000000   1.0000000
B2   B   0.777822397365901   0.722311999762044   0.875000000000000   1.0000000
B2   B   0.611125650958439   0.222141344798077   0.875000000000000   1.0000000
B2   B   0.944408797036828   0.222188625069344   0.875000000000000   1.0000000
B2   B   0.277963564211137   0.722995456337445   0.375000000000000   1.0000000
B2   B   0.112800686942930   0.223067010138129   0.375000000000000   1.0000000
B2   B   0.443020109740680   0.214242099429462   0.375000000000000   1.0000000
B2   B   0.613636083598067   0.727843884925645   0.375000000000000   1.0000000
B2   B   0.945232092582146   0.722854783641753   0.375000000000000   1.0000000
B2   B   0.780127797009985   0.222110667524100   0.375000000000000   1.0000000
B2   B   0.111082245161601   0.888879628017603   0.875000000000000   1.0000000
B2   B   0.444433323438191   0.888883328385760   0.875000000000000   1.0000000
B2   B   0.277641165027776   0.388836828891384   0.875000000000000   1.0000000
B2   B   0.611132837817138   0.388833793625216   0.875000000000000   1.0000000
B2   B   0.777796221636616   0.888956230326058   0.875000000000000   1.0000000
B2   B   0.944444330523550   0.388850662211897   0.875000000000000   1.0000000
B2   B   0.111621221075815   0.389530124615169   0.375000000000000   1.0000000
B2   B   0.277963564211137   0.888301441207020   0.375000000000000   1.0000000
B2   B   0.613274596558099   0.891177101596987   0.375000000000000   1.0000000
B2   B   0.945728639442706   0.890062221998557   0.375000000000000   1.0000000
B2   B   0.780242853401897   0.387886127342479   0.375000000000000   1.0000000
B2   B   0.277705617041432   0.555545127783793   0.875000000000000   1.0000000
B2   B   0.111033066737381   0.055520042763883   0.875000000000000   1.0000000
B2   B   0.611132837817138   0.555632377525254   0.875000000000000   1.0000000
B2   B   0.444421875718403   0.055493690522263   0.875000000000000   1.0000000
B2   B   0.944468935803988   0.555547369916267   0.875000000000000   1.0000000
B2   B   0.111162199860228   0.555960215410412   0.375000000000000   1.0000000
B2   B   0.777780785771115   0.055557059552225   0.875000000000000   1.0000000
B2   B   0.277138647698229   0.053373452830716   0.375000000000000   1.0000000
B2   B   0.443020109740680   0.562111343644554   0.375000000000000   1.0000000
B2   B   0.779959815088021   0.556646574210680   0.375000000000000   1.0000000
B2   B   0.613274596558099   0.055430828294443   0.375000000000000   1.0000000
B2   B   0.444385386725472   0.555589180808805   0.875000000000000   1.0000000
B2   B   0.946433203026969   0.056852788217385   0.375000000000000   1.0000000
B2   B   0.277749288906361   0.722218097712119   0.875000000000000   1.0000000
B2   B   0.111001391852250   0.222167362592789   0.875000000000000   1.0000000
B2   B   0.444385386725472   0.222129539250003   0.875000000000000   1.0000000
B2   B   0.611125650958439   0.722317639493692   0.875000000000000   1.0000000
B2   B   0.944468935803988   0.722254899221058   0.875000000000000   1.0000000
B2   B   0.777796221636616   0.222173324643885   0.875000000000000   1.0000000
B2   B   0.111236006604588   0.722284669968959   0.375000000000000   1.0000000
B2   B   0.445357780595458   0.725887207338812   0.375000000000000   1.0000000
B2   B   0.277210424389473   0.220541966928265   0.375000000000000   1.0000000
B2   B   0.780242853401897   0.725690059392748   0.375000000000000   1.0000000
B2   B   0.613636083598067   0.219125532005751   0.375000000000000   1.0000000
B2   B   0.946433203026969   0.222913748142920   0.375000000000000   1.0000000
B2   B   0.111033066737381   0.388846357306827   0.875000000000000   1.0000000
B2   B   0.277749288906361   0.888864524527571   0.875000000000000   1.0000000
B2   B   0.611120515397775   0.888930973842128   0.875000000000000   1.0000000
B2   B   0.444337623233797   0.388835478283563   0.875000000000000   1.0000000
B2   B   0.944444330523550   0.888927001644982   0.875000000000000   1.0000000
B2   B   0.111162199860228   0.888535317783145   0.375000000000000   1.0000000
B2   B   0.777822397365901   0.388843730937187   0.875000000000000   1.0000000
B2   B   0.445684695109637   0.889509014221483   0.375000000000000   1.0000000
B2   B   0.277210424389473   0.390001790794536   0.375000000000000   1.0000000
B2   B   0.277138647698229   0.557098528200849   0.375000000000000   1.0000000
B2   B   0.618429772382184   0.379595801578735   0.375000000000000   1.0000000
B2   B   0.780127797009985   0.891350462819213   0.375000000000000   1.0000000
B2   B   0.945728639442706   0.388999750777477   0.375000000000000   1.0000000
B2   B   0.111082245161601   0.555535950477325   0.875000000000000   1.0000000
B2   B   0.277705617041432   0.055493822590977   0.875000000000000   1.0000000
B2   B   0.777828739465246   0.555581036399291   0.875000000000000   1.0000000
B2   B   0.611120515397775   0.055522874888975   0.875000000000000   1.0000000
B2   B   0.944408797036828   0.055553505300821   0.875000000000000   1.0000000
B2   B   0.055575450113215   0.111088964674578   0.124673009283116   1.0000000
B2   B   0.555566761264640   0.611441299683976   0.125408972906388   1.0000000
B2   B   0.388750278001640   0.110751291260838   0.124766914296024   1.0000000
B2   B   0.889280267858337   0.611306800595841   0.124875130700427   1.0000000
B2   B   0.722278170529647   0.111072413034401   0.124722426674673   1.0000000
B2   B   0.055746930785959   0.777855454314723   0.625203373846669   1.0000000
B2   B   0.388833428799129   0.777859353098514   0.625288355129314   1.0000000
B2   B   0.222091343419678   0.277712338376507   0.624962758510115   1.0000000
B2   B   0.722387272199757   0.778020586020433   0.625229719713753   1.0000000
B2   B   0.555566761264640   0.277458794914000   0.624591027093612   1.0000000
B2   B   0.889020999815788   0.277806929687862   0.625248897163351   1.0000000
B2   B   0.222258857903214   0.777796095618275   0.124804163161412   1.0000000
B2   B   0.055575450113215   0.277819818771973   0.124673009283116   1.0000000
B2   B   0.388582282801561   0.277249965561963   0.127004210418113   1.0000000
B2   B   0.555531167865573   0.777967747711974   0.124668774398706   1.0000000
B2   B   0.889176456120503   0.777973272652426   0.124783700680323   1.0000000
B2   B   0.722387272199757   0.277700019512660   0.124770280286247   1.0000000
B2   B   0.055650372175480   0.944447696874147   0.625304033800829   1.0000000
B2   B   0.388833428799129   0.944307409033952   0.625288355129314   1.0000000
B2   B   0.222119518432444   0.444557195547967   0.625308030438422   1.0000000
B2   B   0.555946979943728   0.444640156638529   0.622666888769970   1.0000000
B2   B   0.722278170529647   0.944539090828581   0.625277573325327   1.0000000
B2   B   0.889176456120503   0.444536516801413   0.625216299319677   1.0000000
B2   B   0.055650372175480   0.444536008634662   0.124695966199171   1.0000000
B2   B   0.222208670890005   0.944311076492448   0.124724651487510   1.0000000
B2   B   0.555536637056415   0.944434985194873   0.124709298795074   1.0000000
B2   B   0.388582282801561   0.444665650572934   0.127004210418113   1.0000000
B2   B   0.889020999815788   0.944547403461261   0.124751102836649   1.0000000
B2   B   0.722664507000469   0.444563129155971   0.125320388409631   1.0000000
B2   B   0.222208670890005   0.611230927730892   0.625275348512490   1.0000000
B2   B   0.055575450113215   0.111088964674578   0.625326990716884   1.0000000
B2   B   0.555566761264640   0.611441299683976   0.624591027093612   1.0000000
B2   B   0.388750278001640   0.110751291260838   0.625233085703977   1.0000000
B2   B   0.889280267858337   0.611306800595841   0.625124869299572   1.0000000
B2   B   0.055746930785959   0.611224809804574   0.124796626153332   1.0000000
B2   B   0.722278170529647   0.111072413034401   0.625277573325327   1.0000000
B2   B   0.222119518432444   0.110895656217812   0.124691969561577   1.0000000
B2   B   0.388750278001640   0.611332320074145   0.124766914296024   1.0000000
B2   B   0.722664507000469   0.611434711177834   0.125320388409631   1.0000000
B2   B   0.555531167865573   0.110896753486934   0.124668774398706   1.0000000
B2   B   0.388750278001640   0.611332320074145   0.625233085703977   1.0000000
B2   B   0.888962459521152   0.111147896427248   0.124769290448034   1.0000000
B2   B   0.222258857903214   0.777796095618275   0.625195836838588   1.0000000
B2   B   0.055575450113215   0.277819818771973   0.625326990716884   1.0000000
B2   B   0.388582282801561   0.277249965561963   0.622995789581888   1.0000000
B2   B   0.555531167865573   0.777967747711974   0.625331225601294   1.0000000
B2   B   0.889176456120503   0.777973272652426   0.625216299319677   1.0000000
B2   B   0.722387272199757   0.277700019512660   0.625229719713753   1.0000000
B2   B   0.055746930785959   0.777855454314723   0.124796626153332   1.0000000
B2   B   0.388833428799129   0.777859353098514   0.124711644870686   1.0000000
B2   B   0.222091343419678   0.277712338376507   0.125037241489883   1.0000000
B2   B   0.722387272199757   0.778020586020433   0.124770280286247   1.0000000
B2   B   0.555566761264640   0.277458794914000   0.125408972906388   1.0000000
B2   B   0.889020999815788   0.277806929687862   0.124751102836649   1.0000000
B2   B   0.055650372175480   0.444536008634662   0.625304033800829   1.0000000
B2   B   0.222208670890005   0.944311076492448   0.625275348512490   1.0000000
B2   B   0.555536637056415   0.944434985194873   0.625290701204926   1.0000000
B2   B   0.388582282801561   0.444665650572934   0.622995789581888   1.0000000
B2   B   0.889020999815788   0.944547403461261   0.625248897163351   1.0000000
B2   B   0.055650372175480   0.944447696874147   0.124695966199171   1.0000000
B2   B   0.722664507000469   0.444563129155971   0.624679611590369   1.0000000
B2   B   0.388833428799129   0.944307409033952   0.124711644870686   1.0000000
B2   B   0.222119518432444   0.444557195547967   0.124691969561577   1.0000000
B2   B   0.222208670890005   0.611230927730892   0.124724651487510   1.0000000
B2   B   0.555946979943728   0.444640156638529   0.127333111230030   1.0000000
B2   B   0.722278170529647   0.944539090828581   0.124722426674673   1.0000000
B2   B   0.889176456120503   0.444536516801413   0.124783700680323   1.0000000
B2   B   0.055746930785959   0.611224809804574   0.625203373846669   1.0000000
B2   B   0.222119518432444   0.110895656217812   0.625308030438422   1.0000000
B2   B   0.722664507000469   0.611434711177834   0.624679611590369   1.0000000
B2   B   0.555531167865573   0.110896753486934   0.625331225601294   1.0000000
B2   B   0.888962459521152   0.111147896427248   0.625230709551966   1.0000000


