data_1
_audit_creation_method   'vasp2cif'
_cell_length_a    17.52789999999977
_cell_length_b    17.52789999999977
_cell_length_c    15.0
_cell_angle_alpha    90.0
_cell_angle_beta    90.0
_cell_angle_gamma    119.99999999999916

_symmetry_space_group_name_H-M    'P 1'
loop_
_atom_site_label
_atom_site_type_symbol
_atom_site_fract_x
_atom_site_fract_y
_atom_site_fract_z
_atom_site_occupancy
B2   B   0.904772106675770   0.952273668898561   0.110996247716382   1.0000000
B2   B   0.904912881995180   0.095264701941802   0.111033096903194   1.0000000
B2   B   0.904871033095146   0.238139927632044   0.111034332122071   1.0000000
B2   B   0.904714660057836   0.380994778478829   0.110984431221737   1.0000000
B2   B   0.904622126331143   0.523992509345566   0.110984361086939   1.0000000
B2   B   0.906973547171046   0.667760846513571   0.111120349463950   1.0000000
B2   B   0.904269720551133   0.808825389485782   0.111015044557326   1.0000000
B2   B   0.047656321399420   0.952533579264912   0.110992801079223   1.0000000
B2   B   0.047902024219672   0.095460358174784   0.111000572649231   1.0000000
B2   B   0.047951775323289   0.238208703140646   0.110992297269549   1.0000000
B2   B   0.047792904340573   0.380889020411523   0.111012143947153   1.0000000
B2   B   0.047496772905824   0.523690415414185   0.110998362958334   1.0000000
B2   B   0.048331981822546   0.666595191067360   0.111030328943951   1.0000000
B2   B   0.048304647224539   0.810300217339993   0.111008728005794   1.0000000
B2   B   0.190629527488527   0.952560546036220   0.110993544377099   1.0000000
B2   B   0.190993934779517   0.095751478434723   0.111012478554646   1.0000000
B2   B   0.191123386621362   0.238541547301459   0.110993882030138   1.0000000
B2   B   0.191079975432676   0.381026108379232   0.110984283294869   1.0000000
B2   B   0.190189095990529   0.523753104699213   0.111043216864689   1.0000000
B2   B   0.190620567670824   0.666657340738083   0.111052326919715   1.0000000
B2   B   0.190528883751313   0.809558937041703   0.110999438246665   1.0000000
B2   B   0.333289152737347   0.952263525724390   0.111013730399626   1.0000000
B2   B   0.333012828076807   0.094619926336940   0.111045190984204   1.0000000
B2   B   0.334564912096567   0.238446728178428   0.111046476330612   1.0000000
B2   B   0.334976877678947   0.382308788143258   0.111024724040145   1.0000000
B2   B   0.332666123554089   0.524102618311593   0.111025372402065   1.0000000
B2   B   0.333065089206610   0.666843981607065   0.111064743719638   1.0000000
B2   B   0.333299539601116   0.809611284812854   0.111056016607492   1.0000000
B2   B   0.476208209227891   0.952572947862724   0.111003162256492   1.0000000
B2   B   0.476083828015977   0.095387977970675   0.110979866540165   1.0000000
B2   B   0.474870658092036   0.237190665381945   0.111003321267203   1.0000000
B2   B   0.474967048144163   0.524194045255547   0.111100537132715   1.0000000
B2   B   0.475441817218184   0.667034248668747   0.111030184608600   1.0000000
B2   B   0.476126211017261   0.809757274087560   0.111047206318300   1.0000000
B2   B   0.619076032813968   0.952217023045658   0.111011398211188   1.0000000
B2   B   0.619036787479389   0.095499716235435   0.110984843877593   1.0000000
B2   B   0.618864498948838   0.238786550421435   0.110994050121888   1.0000000
B2   B   0.617329420019107   0.381495680810764   0.111030034859866   1.0000000
B2   B   0.616642247807861   0.664225327726193   0.111029166893578   1.0000000
B2   B   0.618849944077862   0.808639056211789   0.110988846181873   1.0000000
B2   B   0.761884614233140   0.952320006649835   0.110992764841946   1.0000000
B2   B   0.761927967822310   0.095248905203011   0.111033851327363   1.0000000
B2   B   0.761840952181264   0.238075267811573   0.111037806910890   1.0000000
B2   B   0.761755532908053   0.380836624348339   0.110986062984125   1.0000000
B2   B   0.762249224302727   0.523636186671448   0.111085939119973   1.0000000
B2   B   0.761022721747439   0.665934364517533   0.111116784938140   1.0000000
B2   B   0.761754864270265   0.809402880596644   0.110987409678862   1.0000000
C2   C   0.477452645045012   0.381228507287274   0.111186689773916   1.0000000
C2   C   0.524800245142771   0.473442505053461   0.111260898178681   1.0000000
C2   C   0.619081254376813   0.522294696790897   0.111164972156508   1.0000000
C2   C   0.809663642071334   0.619000993477703   0.111190704412015   1.0000000
N2   N   0.952443822675230   0.905006330040080   0.110981149828478   1.0000000
N2   N   0.952700932099201   0.047896356235715   0.110997895595256   1.0000000
N2   N   0.952701839792019   0.190605195358904   0.111009033378627   1.0000000
N2   N   0.952514504871038   0.333223091448272   0.110997627189623   1.0000000
N2   N   0.952361406937399   0.475874405252870   0.110949537036533   1.0000000
N2   N   0.954265195722564   0.619107995532639   0.111022566850724   1.0000000
N2   N   0.954276553425992   0.763688742243489   0.111025132496499   1.0000000
N2   N   0.096093120878950   0.905778917919359   0.110974893709218   1.0000000
N2   N   0.095944176491638   0.048358784392947   0.110983250322090   1.0000000
N2   N   0.096065950484509   0.190953930518777   0.110977003599012   1.0000000
N2   N   0.095907518161471   0.333381154234837   0.110978015427326   1.0000000
N2   N   0.095270800186097   0.475960911878810   0.111004835603115   1.0000000
N2   N   0.095968197130133   0.618893572273373   0.111009106584551   1.0000000
N2   N   0.095969658227405   0.762310517453142   0.110992511953712   1.0000000
N2   N   0.238452329610950   0.905129725967693   0.110976360518430   1.0000000
N2   N   0.238485355619366   0.048114807182703   0.111011710484214   1.0000000
N2   N   0.239742048771619   0.191834406548001   0.111000030087760   1.0000000
N2   N   0.239822992604519   0.333743637647993   0.110971441479257   1.0000000
N2   N   0.237976919769437   0.476083019703502   0.110999579094124   1.0000000
N2   N   0.238187462499871   0.618949172089873   0.111044894422319   1.0000000
N2   N   0.238397742988784   0.762033940553699   0.111022158373220   1.0000000
N2   N   0.381112183235790   0.904979950317254   0.111011568216217   1.0000000
N2   N   0.381070355638535   0.047833726828040   0.111005350066559   1.0000000
N2   N   0.380846067364070   0.190321608755576   0.111013145855384   1.0000000
N2   N   0.385573576126926   0.335382269666524   0.111079009381548   1.0000000
N2   N   0.380455502888599   0.476419923426183   0.111006239882084   1.0000000
N2   N   0.380495287101969   0.619073525633343   0.111030982368149   1.0000000
N2   N   0.380979880792358   0.762041667600058   0.111048917535561   1.0000000
N2   N   0.523805256844822   0.904964623228976   0.111009404041676   1.0000000
N2   N   0.523752810342358   0.048036575318980   0.110958804360769   1.0000000
N2   N   0.523437861889221   0.191258247340588   0.110959909512710   1.0000000
N2   N   0.521066223308740   0.333851906352534   0.111053080095539   1.0000000
N2   N   0.522281830261652   0.618711530478494   0.111010482735937   1.0000000
N2   N   0.523522846505082   0.761895872120051   0.111007886939738   1.0000000
N2   N   0.666436610007997   0.904218025400392   0.110978550494575   1.0000000
N2   N   0.666544313691552   0.047680651633901   0.110992659685227   1.0000000
N2   N   0.666265272170336   0.190904653995345   0.110996454988195   1.0000000
N2   N   0.665057069413100   0.334062337699919   0.110975181372568   1.0000000
N2   N   0.663901806616722   0.476853816286967   0.111068193231885   1.0000000
N2   N   0.662400122114489   0.613039247313214   0.111075071784783   1.0000000
N2   N   0.665637726109034   0.759835674160738   0.110971742454485   1.0000000
N2   N   0.809275126815096   0.904908626147489   0.110970082901190   1.0000000
N2   N   0.809529259769478   0.047692233327820   0.111012640183695   1.0000000
N2   N   0.809447713113063   0.190421589818185   0.111027032152868   1.0000000
N2   N   0.809047598392792   0.332797048181296   0.110991939167465   1.0000000
N2   N   0.808749310830950   0.474317068318630   0.110964966391727   1.0000000
N2   N   0.808300961237077   0.762256177524962   0.111006944877027   1.0000000


