data_1
_audit_creation_method   'vasp2cif'
_cell_length_a    14.93631414619966
_cell_length_b    14.936314146199727
_cell_length_c    13.341276283792837
_cell_angle_alpha    90.0
_cell_angle_beta    90.0
_cell_angle_gamma    119.99999999999984

_symmetry_space_group_name_H-M    'P 1'
loop_
_atom_site_label
_atom_site_type_symbol
_atom_site_fract_x
_atom_site_fract_y
_atom_site_fract_z
_atom_site_occupancy
As2   As   0.444444444444443   0.388888888888886   0.375000000000000   1.0000000
N2   N   0.111125123146122   0.055573304606256   0.125119805235502   1.0000000
N2   N   0.611078339212856   0.555525600067233   0.122796003051006   1.0000000
N2   N   0.444448181460148   0.055573304606256   0.125119805235502   1.0000000
N2   N   0.944436411193621   0.555550763863606   0.125192165970919   1.0000000
N2   N   0.777777777777779   0.055555555555557   0.125151627943791   1.0000000
N2   N   0.111111111111114   0.722222222222221   0.624911175596473   1.0000000
N2   N   0.444448181460148   0.722208210187207   0.624880194764469   1.0000000
N2   N   0.277807733266103   0.222254994120494   0.627203996948959   1.0000000
N2   N   0.777760028727094   0.722208210187207   0.624880194764469   1.0000000
N2   N   0.611106601723302   0.222226731610062   0.625237703965022   1.0000000
N2   N   0.944443817173449   0.222222387630883   0.624789388988076   1.0000000
N2   N   0.277782569469716   0.722218980663365   0.125192165970919   1.0000000
N2   N   0.111120129886803   0.222226731610062   0.124762296034957   1.0000000
N2   N   0.444447260854398   0.222254994120494   0.122796003051006   1.0000000
N2   N   0.611106601723302   0.722213203446498   0.124762296034957   1.0000000
N2   N   0.944436411193621   0.722218980663365   0.125192165970919   1.0000000
N2   N   0.777778570457448   0.222222387630883   0.125210611011910   1.0000000
N2   N   0.111114352669971   0.888896922139708   0.624807834029081   1.0000000
N2   N   0.444446301445511   0.888889817389438   0.624703257380640   1.0000000
N2   N   0.277807733266103   0.388886072478931   0.627203996948959   1.0000000
N2   N   0.611078339212856   0.388886072478931   0.627203996948959   1.0000000
N2   N   0.777778570457448   0.888889516159879   0.624789388988076   1.0000000
N2   N   0.944443515943891   0.388887031887817   0.624703257380640   1.0000000
N2   N   0.111125123146122   0.388885151873180   0.125119805235502   1.0000000
N2   N   0.277782569469716   0.888896922139708   0.125192165970919   1.0000000
N2   N   0.611110945702474   0.888889516159879   0.125210611011910   1.0000000
N2   N   0.444444444444443   0.388888888888886   0.115789618945763   1.0000000
N2   N   0.944443515943891   0.888889817389438   0.125296742619389   1.0000000
N2   N   0.777760028727094   0.388885151873180   0.125119805235502   1.0000000
N2   N   0.277788188935535   0.555545144397815   0.625222404910533   1.0000000
N2   N   0.111125123146122   0.055573304606256   0.624880194764469   1.0000000
N2   N   0.611078339212849   0.555525600067233   0.627203996948959   1.0000000
N2   N   0.444448181460148   0.055573304606256   0.624880194764469   1.0000000
N2   N   0.944436411193621   0.555550763863606   0.624807834029081   1.0000000
N2   N   0.111114352669971   0.555550763863606   0.125192165970919   1.0000000
N2   N   0.777777777777779   0.055555555555557   0.624848372056173   1.0000000
N2   N   0.277788188935535   0.055576377871076   0.124777595089481   1.0000000
N2   N   0.444447260854398   0.555525600067233   0.122796003051006   1.0000000
N2   N   0.777756955462266   0.555545144397815   0.124777595089481   1.0000000
N2   N   0.611110945702474   0.055554762875888   0.125210611011910   1.0000000
N2   N   0.444447260854398   0.555525600067233   0.627203996948959   1.0000000
N2   N   0.944443817173449   0.055554762875888   0.125210611011910   1.0000000
N2   N   0.277782569469716   0.722218980663365   0.624807834029081   1.0000000
N2   N   0.111120129886803   0.222226731610062   0.625237703965022   1.0000000
N2   N   0.444447260854398   0.222254994120494   0.627203996948959   1.0000000
N2   N   0.611106601723302   0.722213203446498   0.625237703965022   1.0000000
N2   N   0.944436411193621   0.722218980663365   0.624807834029081   1.0000000
N2   N   0.777778570457448   0.222222387630883   0.624789388988076   1.0000000
N2   N   0.111111111111114   0.722222222222221   0.125088824403520   1.0000000
N2   N   0.444448181460148   0.722208210187207   0.125119805235502   1.0000000
N2   N   0.277807733266103   0.222254994120494   0.122796003051006   1.0000000
N2   N   0.777760028727094   0.722208210187207   0.125119805235502   1.0000000
N2   N   0.611106601723302   0.222226731610062   0.124762296034957   1.0000000
N2   N   0.944443817173449   0.222222387630883   0.125210611011910   1.0000000
N2   N   0.111125123146122   0.388885151873180   0.624880194764469   1.0000000
N2   N   0.277782569469716   0.888896922139708   0.624807834029081   1.0000000
N2   N   0.611110945702474   0.888889516159879   0.624789388988076   1.0000000
N2   N   0.444444444444443   0.388888888888886   0.634210381054251   1.0000000
N2   N   0.944443515943891   0.888889817389438   0.624703257380640   1.0000000
N2   N   0.111114352669971   0.888896922139708   0.125192165970919   1.0000000
N2   N   0.777760028727094   0.388885151873180   0.624880194764469   1.0000000
N2   N   0.444446301445511   0.888889817389438   0.125296742619389   1.0000000
N2   N   0.277807733266103   0.388886072478931   0.122796003051006   1.0000000
N2   N   0.277788188935535   0.555545144397815   0.124777595089481   1.0000000
N2   N   0.611078339212849   0.388886072478931   0.122796003051006   1.0000000
N2   N   0.777778570457448   0.888889516159879   0.125210611011910   1.0000000
N2   N   0.944443515943891   0.388887031887817   0.125296742619389   1.0000000
N2   N   0.111114352669971   0.555550763863606   0.624807834029081   1.0000000
N2   N   0.277788188935535   0.055576377871076   0.625222404910533   1.0000000
N2   N   0.777756955462266   0.555545144397815   0.625222404910533   1.0000000
N2   N   0.611110945702474   0.055554762875888   0.624789388988076   1.0000000
N2   N   0.944443817173449   0.055554762875888   0.624789388988076   1.0000000
N2   N   0.054506513124981   0.110423407589080   0.375000000000000   1.0000000
N2   N   0.556014636191285   0.612029272382499   0.375000000000000   1.0000000
N2   N   0.387581410789778   0.104599959436539   0.375000000000000   1.0000000
N2   N   0.891213474437799   0.612273403885557   0.375000000000000   1.0000000
N2   N   0.722412733392195   0.110920599941134   0.375000000000000   1.0000000
N2   N   0.055556279100622   0.777777054232692   0.875000000000000   1.0000000
N2   N   0.388886255601514   0.777780258084963   0.875000000000000   1.0000000
N2   N   0.222212947000807   0.277773140167071   0.875000000000000   1.0000000
N2   N   0.722227972382151   0.777779903696053   0.875000000000000   1.0000000
N2   N   0.555560193166293   0.277773140167071   0.875000000000000   1.0000000
N2   N   0.888890884148705   0.277781768297396   0.875000000000000   1.0000000
N2   N   0.221776388453778   0.777554860893557   0.375000000000000   1.0000000
N2   N   0.054506513124981   0.277416438869250   0.375000000000000   1.0000000
N2   N   0.377317405460677   0.254634810921383   0.375000000000000   1.0000000
N2   N   0.555916894464100   0.778826820208369   0.375000000000000   1.0000000
N2   N   0.890691915246559   0.779221819445152   0.375000000000000   1.0000000
N2   N   0.722909925744213   0.277416438869250   0.375000000000000   1.0000000
N2   N   0.055553075248386   0.944439330849879   0.875000000000000   1.0000000
N2   N   0.388886255601514   0.944439330849879   0.875000000000000   1.0000000
N2   N   0.222213221038397   0.444450132314356   0.875000000000000   1.0000000
N2   N   0.555584795845703   0.444459064589516   0.875000000000000   1.0000000
N2   N   0.722221707560062   0.944443415120073   0.875000000000000   1.0000000
N2   N   0.888894002483450   0.444447077731815   0.875000000000000   1.0000000
N2   N   0.054111513888169   0.444803429134743   0.375000000000000   1.0000000
N2   N   0.221059929447751   0.942119858895530   0.375000000000000   1.0000000
N2   N   0.555853394887140   0.944593364110195   0.375000000000000   1.0000000
N2   N   0.377317405460677   0.456015927872652   0.375000000000000   1.0000000
N2   N   0.888739969223134   0.944593364110195   0.375000000000000   1.0000000
N2   N   0.728733373896797   0.445751922543550   0.375000000000000   1.0000000
N2   N   0.222217819216636   0.611115514116671   0.875000000000000   1.0000000
N2   N   0.055553429637297   0.111105360951192   0.875000000000000   1.0000000
N2   N   0.555560193166293   0.611120386332522   0.875000000000000   1.0000000
N2   N   0.388883201018973   0.111096422057377   0.875000000000000   1.0000000
N2   N   0.888897694900028   0.611115514116671   0.875000000000000   1.0000000
N2   N   0.055778472439779   0.611556944879543   0.375000000000000   1.0000000
N2   N   0.722221707560062   0.111111625773288   0.875000000000000   1.0000000
N2   N   0.217018548646740   0.104599959436539   0.375000000000000   1.0000000
N2   N   0.387581410789778   0.616314784686596   0.375000000000000   1.0000000
N2   N   0.728733373896797   0.616314784686596   0.375000000000000   1.0000000
N2   N   0.555916894464100   0.110423407589080   0.375000000000000   1.0000000
N2   N   0.388883201018973   0.611120112294946   0.875000000000000   1.0000000
N2   N   0.888507866548939   0.110920599941134   0.375000000000000   1.0000000
N2   N   0.222220775132084   0.777777054232692   0.875000000000000   1.0000000
N2   N   0.055553429637297   0.277781402019448   0.875000000000000   1.0000000
N2   N   0.388874268743813   0.277748537487640   0.875000000000000   1.0000000
N2   N   0.555551931313902   0.777779903696053   0.875000000000000   1.0000000
N2   N   0.888894002483450   0.777780258084963   0.875000000000000   1.0000000
N2   N   0.722227972382151   0.277781402019448   0.875000000000000   1.0000000
N2   N   0.055778472439779   0.777554860893557   0.375000000000000   1.0000000
N2   N   0.388529904198586   0.779221819445152   0.375000000000000   1.0000000
N2   N   0.221304060950779   0.277318697142086   0.375000000000000   1.0000000
N2   N   0.722909925744213   0.778826820208369   0.375000000000000   1.0000000
N2   N   0.556014636191285   0.277318697142086   0.375000000000000   1.0000000
N2   N   0.888739969223134   0.277479938446197   0.375000000000000   1.0000000
N2   N   0.055553075248386   0.444447077731815   0.875000000000000   1.0000000
N2   N   0.222217819216636   0.944435638433301   0.875000000000000   1.0000000
N2   N   0.555551565035947   0.944442449184623   0.875000000000000   1.0000000
N2   N   0.388874268743813   0.444459064589516   0.875000000000000   1.0000000
N2   N   0.888890884148705   0.944442449184623   0.875000000000000   1.0000000
N2   N   0.054111513888169   0.942641418086770   0.375000000000000   1.0000000
N2   N   0.722236911275980   0.444450132314356   0.875000000000000   1.0000000
N2   N   0.388529904198586   0.942641418086770   0.375000000000000   1.0000000
N2   N   0.217018548646740   0.445751922543550   0.375000000000000   1.0000000
N2   N   0.221059929447751   0.612273403885557   0.375000000000000   1.0000000
N2   N   0.578698522411975   0.456015927872652   0.375000000000000   1.0000000
N2   N   0.722412733392195   0.944825466784389   0.375000000000000   1.0000000
N2   N   0.890691915246559   0.444803429134743   0.375000000000000   1.0000000
N2   N   0.055556279100622   0.611112558201237   0.875000000000000   1.0000000
N2   N   0.222213221038397   0.111096422057377   0.875000000000000   1.0000000
N2   N   0.722236911275980   0.611120112294946   0.875000000000000   1.0000000
N2   N   0.555551931313902   0.111105360951192   0.875000000000000   1.0000000
N2   N   0.888889918213255   0.111111625773288   0.875000000000000   1.0000000
B2   B   0.107558936730269   0.052274091118895   0.375000000000000   1.0000000
B2   B   0.619818243341026   0.563410438602079   0.375000000000000   1.0000000
B2   B   0.444715154388611   0.052274091118895   0.375000000000000   1.0000000
B2   B   0.945513968990847   0.555849263286004   0.375000000000000   1.0000000
B2   B   0.777777777777779   0.055555555555557   0.375000000000000   1.0000000
B2   B   0.111111111111114   0.722222222222221   0.875000000000000   1.0000000
B2   B   0.444439968708323   0.722213587169618   0.875000000000000   1.0000000
B2   B   0.277799011513482   0.222234942942144   0.875000000000000   1.0000000
B2   B   0.777773618461323   0.722213587169618   0.875000000000000   1.0000000
B2   B   0.611103736775951   0.222229596557392   0.875000000000000   1.0000000
B2   B   0.944451008985700   0.222227041317323   0.875000000000000   1.0000000
B2   B   0.277484070047339   0.722998039038200   0.375000000000000   1.0000000
B2   B   0.109770860748514   0.221552097040914   0.375000000000000   1.0000000
B2   B   0.443592195261031   0.213515089992317   0.375000000000000   1.0000000
B2   B   0.611781236292393   0.723562472584807   0.375000000000000   1.0000000
B2   B   0.945513968990847   0.722998039038200   0.375000000000000   1.0000000
B2   B   0.777924847067110   0.221701026222103   0.375000000000000   1.0000000
B2   B   0.111111427993134   0.888890032222753   0.875000000000000   1.0000000
B2   B   0.444440942005788   0.888887137669559   0.875000000000000   1.0000000
B2   B   0.277799011513482   0.388897401904645   0.875000000000000   1.0000000
B2   B   0.611098390391192   0.388897401904645   0.875000000000000   1.0000000
B2   B   0.777776032331658   0.888882324347628   0.875000000000000   1.0000000
B2   B   0.944446195663770   0.388892391327540   0.875000000000000   1.0000000
B2   B   0.107558936730269   0.388618178944717   0.375000000000000   1.0000000
B2   B   0.277484070047339   0.887819364342482   0.375000000000000   1.0000000
B2   B   0.611632307111248   0.889557154178321   0.375000000000000   1.0000000
B2   B   0.944254376290093   0.889078957043235   0.375000000000000   1.0000000
B2   B   0.781059242214427   0.388618178944717   0.375000000000000   1.0000000
B2   B   0.277781265305953   0.555552068027404   0.875000000000000   1.0000000
B2   B   0.111119746163689   0.055559714872020   0.875000000000000   1.0000000
B2   B   0.611098390391192   0.555534321819804   0.875000000000000   1.0000000
B2   B   0.444439968708323   0.055559714872020   0.875000000000000   1.0000000
B2   B   0.944443301110576   0.555554729103738   0.875000000000000   1.0000000
B2   B   0.110335294295164   0.555849263286004   0.375000000000000   1.0000000
B2   B   0.777777777777779   0.055555555555557   0.875000000000000   1.0000000
B2   B   0.275954275991844   0.051908551983688   0.375000000000000   1.0000000
B2   B   0.443592195261031   0.563410438602079   0.375000000000000   1.0000000
B2   B   0.781424781349647   0.557379057341470   0.375000000000000   1.0000000
B2   B   0.611632307111248   0.055408486266240   0.375000000000000   1.0000000
B2   B   0.444435931428684   0.555534321819804   0.875000000000000   1.0000000
B2   B   0.943776179155007   0.055408486266240   0.375000000000000   1.0000000
B2   B   0.277778604229604   0.722221905340201   0.875000000000000   1.0000000
B2   B   0.111125859781441   0.222229596557392   0.875000000000000   1.0000000
B2   B   0.444435931428684   0.222234942942144   0.875000000000000   1.0000000
B2   B   0.611103736775951   0.722207473551910   0.875000000000000   1.0000000
B2   B   0.944443301110576   0.722221905340201   0.875000000000000   1.0000000
B2   B   0.777776032331658   0.222227041317323   0.875000000000000   1.0000000
B2   B   0.111111111111114   0.722222222222221   0.375000000000000   1.0000000
B2   B   0.444715154388611   0.725774396603109   0.375000000000000   1.0000000
B2   B   0.269922894731271   0.213515089992317   0.375000000000000   1.0000000
B2   B   0.781059242214427   0.725774396603109   0.375000000000000   1.0000000
B2   B   0.611781236292393   0.221552097040914   0.375000000000000   1.0000000
B2   B   0.943776179155007   0.221701026222103   0.375000000000000   1.0000000
B2   B   0.111119746163689   0.388893364625005   0.875000000000000   1.0000000
B2   B   0.277778604229604   0.888890032222753   0.875000000000000   1.0000000
B2   B   0.611106292015998   0.888882324347628   0.875000000000000   1.0000000
B2   B   0.444444444444443   0.388888888888886   0.875000000000000   1.0000000
B2   B   0.944446195663770   0.888887137669559   0.875000000000000   1.0000000
B2   B   0.110335294295164   0.887819364342482   0.375000000000000   1.0000000
B2   B   0.777773618461323   0.388893364625005   0.875000000000000   1.0000000
B2   B   0.444824580753077   0.889078957043235   0.375000000000000   1.0000000
B2   B   0.269922894731271   0.389741138072297   0.375000000000000   1.0000000
B2   B   0.275954275991844   0.557379057341470   0.375000000000000   1.0000000
B2   B   0.619818243341026   0.389741138072297   0.375000000000000   1.0000000
B2   B   0.777924847067110   0.889557154178321   0.375000000000000   1.0000000
B2   B   0.944254376290093   0.388508752580251   0.375000000000000   1.0000000
B2   B   0.111111427993134   0.555554729103738   0.875000000000000   1.0000000
B2   B   0.277781265305953   0.055562530611914   0.875000000000000   1.0000000
B2   B   0.777770802721429   0.555552068027404   0.875000000000000   1.0000000
B2   B   0.611106292016006   0.055557301001699   0.875000000000000   1.0000000
B2   B   0.944451008985700   0.055557301001699   0.875000000000000   1.0000000
B2   B   0.055559388744587   0.111126700201617   0.125002275447413   1.0000000
B2   B   0.555529933226613   0.611059866453240   0.123285288225248   1.0000000
B2   B   0.388909579732708   0.111182739531214   0.124302349381141   1.0000000
B2   B   0.888860246021039   0.611096789677208   0.125053910444783   1.0000000
B2   B   0.722221037843690   0.111112295489681   0.125154412398219   1.0000000
B2   B   0.055549709362239   0.777783623971118   0.624888119312292   1.0000000
B2   B   0.388899995200051   0.777773568030088   0.624794537644139   1.0000000
B2   B   0.222273466880102   0.277803400106716   0.626714711774774   1.0000000
B2   B   0.722206633131740   0.777773944588713   0.624997724552572   1.0000000
B2   B   0.555529933226613   0.277803400106716   0.626714711774774   1.0000000
B2   B   0.888884565562249   0.277769131124526   0.624778440366371   1.0000000
B2   B   0.222233914608865   0.777783623971118   0.125111880687687   1.0000000
B2   B   0.055559388744587   0.277766021876313   0.125002275447413   1.0000000
B2   B   0.388968245929232   0.277936491858463   0.120374447398780   1.0000000
B2   B   0.555567311457009   0.777773944588713   0.125002275447413   1.0000000
B2   B   0.888873572830072   0.777773568030088   0.125205462355910   1.0000000
B2   B   0.722206633131740   0.277766021876313   0.125002275447413   1.0000000
B2   B   0.055559765303212   0.944459760503257   0.624794537644139   1.0000000
B2   B   0.388899995200051   0.944459760503257   0.624794537644139   1.0000000
B2   B   0.222273159798499   0.444423753600621   0.625697650618823   1.0000000
B2   B   0.555396841474873   0.444365087404097   0.629625552601227   1.0000000
B2   B   0.722221037843690   0.944442075687288   0.624845587601816   1.0000000
B2   B   0.888873572830072   0.444433338133277   0.624794537644139   1.0000000
B2   B   0.055559765303212   0.444433338133277   0.125205462355910   1.0000000
B2   B   0.222236543656149   0.944473087312297   0.125053910444783   1.0000000
B2   B   0.555564202208803   0.944448767771080   0.125221559633615   1.0000000
B2   B   0.388968245929232   0.444365087404097   0.120374447398780   1.0000000
B2   B   0.888884565562249   0.944448767771080   0.125221559633615   1.0000000
B2   B   0.722150593802158   0.444423753600621   0.124302349381141   1.0000000
B2   B   0.222236543656149   0.611096789677208   0.624946089555218   1.0000000
B2   B   0.055559388744587   0.111126700201617   0.624997724552572   1.0000000
B2   B   0.555529933226613   0.611059866453240   0.626714711774774   1.0000000
B2   B   0.388909579732708   0.111182739531214   0.625697650618823   1.0000000
B2   B   0.888860246021039   0.611096789677208   0.624946089555218   1.0000000
B2   B   0.055549709362239   0.611099418724450   0.125111880687687   1.0000000
B2   B   0.722221037843690   0.111112295489681   0.624845587601816   1.0000000
B2   B   0.222273159798499   0.111182739531214   0.124302349381141   1.0000000
B2   B   0.388909579732708   0.611060173534830   0.124302349381141   1.0000000
B2   B   0.722150593802158   0.611060173534830   0.124302349381141   1.0000000
B2   B   0.555567311457009   0.111126700201617   0.125002275447413   1.0000000
B2   B   0.388909579732708   0.611060173534830   0.625697650618823   1.0000000
B2   B   0.888891257646040   0.111112295489681   0.125154412398219   1.0000000
B2   B   0.222233914608865   0.777783623971118   0.624888119312292   1.0000000
B2   B   0.055559388744587   0.277766021876313   0.624997724552572   1.0000000
B2   B   0.388968245929232   0.277936491858463   0.629625552601227   1.0000000
B2   B   0.555567311457009   0.777773944588713   0.624997724552572   1.0000000
B2   B   0.888873572830072   0.777773568030088   0.624794537644139   1.0000000
B2   B   0.722206633131740   0.277766021876313   0.624997724552572   1.0000000
B2   B   0.055549709362239   0.777783623971118   0.125111880687687   1.0000000
B2   B   0.388899995200051   0.777773568030088   0.125205462355910   1.0000000
B2   B   0.222273466880102   0.277803400106716   0.123285288225248   1.0000000
B2   B   0.722206633131740   0.777773944588713   0.125002275447413   1.0000000
B2   B   0.555529933226613   0.277803400106716   0.123285288225248   1.0000000
B2   B   0.888884565562249   0.277769131124526   0.125221559633615   1.0000000
B2   B   0.055559765303212   0.444433338133277   0.624794537644139   1.0000000
B2   B   0.222236543656149   0.944473087312297   0.624946089555218   1.0000000
B2   B   0.555564202208803   0.944448767771080   0.624778440366371   1.0000000
B2   B   0.388968245929232   0.444365087404097   0.629625552601227   1.0000000
B2   B   0.888884565562249   0.944448767771080   0.624778440366371   1.0000000
B2   B   0.055559765303212   0.944459760503257   0.125205462355910   1.0000000
B2   B   0.722150593802158   0.444423753600621   0.625697650618823   1.0000000
B2   B   0.388899995200051   0.944459760503257   0.125205462355910   1.0000000
B2   B   0.222273159798499   0.444423753600621   0.124302349381141   1.0000000
B2   B   0.222236543656149   0.611096789677208   0.125053910444783   1.0000000
B2   B   0.555396841474873   0.444365087404097   0.120374447398780   1.0000000
B2   B   0.722221037843690   0.944442075687288   0.125154412398219   1.0000000
B2   B   0.888873572830072   0.444433338133277   0.125205462355910   1.0000000
B2   B   0.055549709362239   0.611099418724450   0.624888119312292   1.0000000
B2   B   0.222273159798499   0.111182739531214   0.625697650618823   1.0000000
B2   B   0.722150593802158   0.611060173534830   0.625697650618823   1.0000000
B2   B   0.555567311457009   0.111126700201617   0.624997724552572   1.0000000
B2   B   0.888891257646040   0.111112295489681   0.624845587601816   1.0000000


