data_1
_audit_creation_method   'vasp2cif'
_cell_length_a    14.93631414619966
_cell_length_b    14.936314146199727
_cell_length_c    13.341276283792837
_cell_angle_alpha    90.0
_cell_angle_beta    90.0
_cell_angle_gamma    119.99999999999984

_symmetry_space_group_name_H-M    'P 1'
loop_
_atom_site_label
_atom_site_type_symbol
_atom_site_fract_x
_atom_site_fract_y
_atom_site_fract_z
_atom_site_occupancy
O2   O   0.442250616385864   0.390604564624045   0.375000000000000   1.0000000
N2   N   0.558211846247666   0.442019196619290   0.375000000000000   1.0000000
N2   N   0.111116291351840   0.055566315844125   0.125089252318742   1.0000000
N2   N   0.611137568644118   0.555595966932063   0.125172898731552   1.0000000
N2   N   0.444456055154534   0.055581469605472   0.125055080798704   1.0000000
N2   N   0.944440156740633   0.555549885256320   0.125018361781849   1.0000000
N2   N   0.777792834645209   0.055553515132980   0.125024904025050   1.0000000
N2   N   0.111104994465995   0.722222131817620   0.624991410838040   1.0000000
N2   N   0.444445915500494   0.722215893325316   0.624932965630285   1.0000000
N2   N   0.277782674149602   0.222244664263850   0.624615844340494   1.0000000
N2   N   0.777797126629811   0.722250596349455   0.625018280230681   1.0000000
N2   N   0.611148429811197   0.222225925994850   0.624930429965370   1.0000000
N2   N   0.944454817242453   0.222213942886586   0.624964356336899   1.0000000
N2   N   0.277772865428445   0.722220293453264   0.125049999396587   1.0000000
N2   N   0.111100005705498   0.222211661668555   0.125074726049074   1.0000000
N2   N   0.444464307719719   0.222260732490531   0.125319225021233   1.0000000
N2   N   0.611134109929489   0.722241224426733   0.124981775080594   1.0000000
N2   N   0.944444820090593   0.722229728341585   0.125002144657185   1.0000000
N2   N   0.777803165145861   0.222210243312599   0.125021317033391   1.0000000
N2   N   0.111114780733986   0.888901962047837   0.624960465913519   1.0000000
N2   N   0.444444778543083   0.888897218339136   0.624961547055203   1.0000000
N2   N   0.277781832863250   0.388873758882568   0.624668372560723   1.0000000
N2   N   0.611160836335656   0.388878858690414   0.625425685179754   1.0000000
N2   N   0.777800667684874   0.888911028605406   0.624994565821759   1.0000000
N2   N   0.944454191760716   0.388880259327321   0.624965070050751   1.0000000
N2   N   0.111114308812633   0.388882096593128   0.125081544176125   1.0000000
N2   N   0.277780614376013   0.888902888667143   0.125032967248364   1.0000000
N2   N   0.611117330248075   0.888893864115376   0.125032588269512   1.0000000
N2   N   0.444451395524325   0.388898442658082   0.125943840527523   1.0000000
N2   N   0.944460391807609   0.888908185396138   0.125024310904180   1.0000000
N2   N   0.777801504774900   0.388872987666512   0.125033987192405   1.0000000
N2   N   0.277778358740252   0.555545550785194   0.624891259580816   1.0000000
N2   N   0.111116291351840   0.055566315844125   0.624910747681258   1.0000000
N2   N   0.611137568644118   0.555595966932063   0.624827101268448   1.0000000
N2   N   0.444456055154534   0.055581469605472   0.624944919201297   1.0000000
N2   N   0.944440156740633   0.555549885256320   0.624981638218152   1.0000000
N2   N   0.111103989792768   0.555548988930282   0.125036097824899   1.0000000
N2   N   0.777792834645209   0.055553515132980   0.624975095974951   1.0000000
N2   N   0.277786940088717   0.055583203656099   0.125098657859996   1.0000000
N2   N   0.444461842171336   0.555550604495625   0.125332521960849   1.0000000
N2   N   0.777784427792511   0.555569120263117   0.125092842978928   1.0000000
N2   N   0.611121740704509   0.055558223303262   0.125039784119887   1.0000000
N2   N   0.444461842171336   0.555550604495625   0.624667478039152   1.0000000
N2   N   0.944454506579775   0.055557250547525   0.125048622153280   1.0000000
N2   N   0.277772865428445   0.722220293453264   0.624950000603414   1.0000000
N2   N   0.111100005705498   0.222211661668555   0.624925273950926   1.0000000
N2   N   0.444464307719719   0.222260732490531   0.624680774978768   1.0000000
N2   N   0.611134109929489   0.722241224426733   0.625018224919406   1.0000000
N2   N   0.944444820090593   0.722229728341585   0.624997855342815   1.0000000
N2   N   0.777803165145861   0.222210243312599   0.624978682966609   1.0000000
N2   N   0.111104994465995   0.722222131817620   0.125008589161960   1.0000000
N2   N   0.444445915500494   0.722215893325316   0.125067034369715   1.0000000
N2   N   0.277782674149602   0.222244664263850   0.125384155659506   1.0000000
N2   N   0.777797126629811   0.722250596349455   0.124981719769320   1.0000000
N2   N   0.611148429811197   0.222225925994850   0.125069570034630   1.0000000
N2   N   0.944454817242453   0.222213942886586   0.125035643663101   1.0000000
N2   N   0.111114308812633   0.388882096593128   0.624918455823875   1.0000000
N2   N   0.277780614376013   0.888902888667143   0.624967032751636   1.0000000
N2   N   0.611117330248075   0.888893864115376   0.624967411730489   1.0000000
N2   N   0.444451395524325   0.388898442658082   0.624056159472477   1.0000000
N2   N   0.944460391807609   0.888908185396138   0.624975689095821   1.0000000
N2   N   0.111114780733986   0.888901962047837   0.125039534086481   1.0000000
N2   N   0.777801504774900   0.388872987666512   0.624966012807594   1.0000000
N2   N   0.444444778543083   0.888897218339136   0.125038452944796   1.0000000
N2   N   0.277781832863250   0.388873758882568   0.125331627439277   1.0000000
N2   N   0.277778358740252   0.555545550785194   0.125108740419184   1.0000000
N2   N   0.611160836335656   0.388878858690414   0.124574314820245   1.0000000
N2   N   0.777800667684874   0.888911028605406   0.125005434178240   1.0000000
N2   N   0.944454191760716   0.388880259327321   0.125034929949249   1.0000000
N2   N   0.111103989792768   0.555548988930282   0.624963902175100   1.0000000
N2   N   0.277786940088717   0.055583203656099   0.624901342140004   1.0000000
N2   N   0.777784427792511   0.555569120263117   0.624907157021072   1.0000000
N2   N   0.611121740704509   0.055558223303262   0.624960215880113   1.0000000
N2   N   0.944454506579775   0.055557250547525   0.624951377846720   1.0000000
N2   N   0.054869428009264   0.110684033172994   0.375000000000000   1.0000000
N2   N   0.554252394784047   0.610040096455744   0.375000000000000   1.0000000
N2   N   0.389392331464311   0.114196567606624   0.375000000000000   1.0000000
N2   N   0.889795551839694   0.611836597107054   0.375000000000000   1.0000000
N2   N   0.722298823428224   0.110251570413641   0.375000000000000   1.0000000
N2   N   0.055559536167657   0.777780669979745   0.875000000000000   1.0000000
N2   N   0.388889231310516   0.777782668969168   0.875000000000000   1.0000000
N2   N   0.222224349334728   0.277781511881297   0.875000000000000   1.0000000
N2   N   0.722220837552619   0.777782479995526   0.875000000000000   1.0000000
N2   N   0.555552278631067   0.277772951469514   0.875000000000000   1.0000000
N2   N   0.888890523322945   0.277780901676904   0.875000000000000   1.0000000
N2   N   0.222692657993268   0.778832946644819   0.375000000000000   1.0000000
N2   N   0.055068673931493   0.277565246352883   0.375000000000000   1.0000000
N2   N   0.387563072191839   0.279898630519190   0.375000000000000   1.0000000
N2   N   0.554942617069865   0.777049112139498   0.375000000000000   1.0000000
N2   N   0.888060331262599   0.777066704696945   0.375000000000000   1.0000000
N2   N   0.723882319600863   0.276816908436311   0.375000000000000   1.0000000
N2   N   0.055557387638652   0.944448444218523   0.875000000000000   1.0000000
N2   N   0.388889617063698   0.944444406691370   0.875000000000000   1.0000000
N2   N   0.222224966257557   0.444449000424812   0.875000000000000   1.0000000
N2   N   0.555550815662176   0.444449304538483   0.875000000000000   1.0000000
N2   N   0.722218449565360   0.944446180680521   0.875000000000000   1.0000000
N2   N   0.888894525997307   0.444447897015681   0.875000000000000   1.0000000
N2   N   0.056261213811604   0.444768790645598   0.375000000000000   1.0000000
N2   N   0.222893897641378   0.946017204980365   0.375000000000000   1.0000000
N2   N   0.555343435159424   0.944145392869492   0.375000000000000   1.0000000
N2   N   0.385057597143247   0.444551727795943   0.375000000000000   1.0000000
N2   N   0.888259853241878   0.943648957503541   0.375000000000000   1.0000000
N2   N   0.734454708273182   0.449285431893687   0.375000000000000   1.0000000
N2   N   0.222223073295287   0.611113809630681   0.875000000000000   1.0000000
N2   N   0.055555688070702   0.111111294640911   0.875000000000000   1.0000000
N2   N   0.555550671139440   0.611114424822344   0.875000000000000   1.0000000
N2   N   0.388888852252220   0.111108487827050   0.875000000000000   1.0000000
N2   N   0.888895102289155   0.611114191009230   0.875000000000000   1.0000000
N2   N   0.056224048686663   0.611847580006442   0.375000000000000   1.0000000
N2   N   0.722217391180680   0.111109309997785   0.875000000000000   1.0000000
N2   N   0.223052950490082   0.113015251708604   0.375000000000000   1.0000000
N2   N   0.388166998863751   0.610334572047114   0.375000000000000   1.0000000
N2   N   0.719877516018881   0.609174545451245   0.375000000000000   1.0000000
N2   N   0.555886061150475   0.110978319827381   0.375000000000000   1.0000000
N2   N   0.388889214978709   0.611115216562507   0.875000000000000   1.0000000
N2   N   0.888555003952553   0.110389933664502   0.375000000000000   1.0000000
N2   N   0.222224425212852   0.777779649926706   0.875000000000000   1.0000000
N2   N   0.055556944241144   0.277780402812406   0.875000000000000   1.0000000
N2   N   0.388891038639216   0.277782776369959   0.875000000000000   1.0000000
N2   N   0.555551889648505   0.777781640539512   0.875000000000000   1.0000000
N2   N   0.888892358889882   0.777784126521184   0.875000000000000   1.0000000
N2   N   0.722221663796972   0.277777291018534   0.875000000000000   1.0000000
N2   N   0.056078959385803   0.778651701630988   0.375000000000000   1.0000000
N2   N   0.388856882226103   0.778100200896267   0.375000000000000   1.0000000
N2   N   0.220188958558802   0.277414567238047   0.375000000000000   1.0000000
N2   N   0.721301262818317   0.776680297346322   0.375000000000000   1.0000000
N2   N   0.553187249680878   0.270059256851987   0.375000000000000   1.0000000
N2   N   0.889472095494473   0.277418028350569   0.375000000000000   1.0000000
N2   N   0.055557920662192   0.444447796853761   0.875000000000000   1.0000000
N2   N   0.222224164298154   0.944445525708322   0.875000000000000   1.0000000
N2   N   0.555550858788853   0.944445624027574   0.875000000000000   1.0000000
N2   N   0.388891319238154   0.444450136445735   0.875000000000000   1.0000000
N2   N   0.888890998691628   0.944448810501205   0.875000000000000   1.0000000
N2   N   0.055632621495824   0.944908231425907   0.375000000000000   1.0000000
N2   N   0.722226329630962   0.444448961732681   0.875000000000000   1.0000000
N2   N   0.389236479557530   0.945919617423911   0.375000000000000   1.0000000
N2   N   0.222054391336489   0.444673935976116   0.375000000000000   1.0000000
N2   N   0.222396040475309   0.611651938909143   0.375000000000000   1.0000000
N2   N   0.721708641256967   0.943490259351832   0.375000000000000   1.0000000
N2   N   0.890888836907053   0.444752326483508   0.375000000000000   1.0000000
N2   N   0.055559659996065   0.611111519415364   0.875000000000000   1.0000000
N2   N   0.222222894116801   0.111113131512462   0.875000000000000   1.0000000
N2   N   0.722220811628994   0.611114717715400   0.875000000000000   1.0000000
N2   N   0.555550637728273   0.111105188408380   0.875000000000000   1.0000000
N2   N   0.888888672994897   0.111111266242843   0.875000000000000   1.0000000
B2   B   0.111095384674216   0.055999106254424   0.375000000000000   1.0000000
B2   B   0.606840962583809   0.550602640996220   0.375000000000000   1.0000000
B2   B   0.444943662163054   0.057500860543767   0.375000000000000   1.0000000
B2   B   0.945012324946952   0.555974340916924   0.375000000000000   1.0000000
B2   B   0.777422098210796   0.054513084620321   0.375000000000000   1.0000000
B2   B   0.111099959358355   0.722215923571513   0.875000000000000   1.0000000
B2   B   0.444454903495398   0.722231677814728   0.875000000000000   1.0000000
B2   B   0.277815900739300   0.222237574428832   0.875000000000000   1.0000000
B2   B   0.777759652576681   0.722189623780563   0.875000000000000   1.0000000
B2   B   0.611108989607962   0.222248456754684   0.875000000000000   1.0000000
B2   B   0.944425640219898   0.222224575179558   0.875000000000000   1.0000000
B2   B   0.277882709988437   0.722936979428666   0.375000000000000   1.0000000
B2   B   0.109179386734857   0.221285798441751   0.375000000000000   1.0000000
B2   B   0.446814336635480   0.227190188758764   0.375000000000000   1.0000000
B2   B   0.610315612684745   0.721106035179978   0.375000000000000   1.0000000
B2   B   0.944695914216887   0.722643110403715   0.375000000000000   1.0000000
B2   B   0.778581635421992   0.221217608252917   0.375000000000000   1.0000000
B2   B   0.111106998517980   0.888878166122565   0.875000000000000   1.0000000
B2   B   0.444449666308264   0.888900421422438   0.875000000000000   1.0000000
B2   B   0.277807484682816   0.388906396127490   0.875000000000000   1.0000000
B2   B   0.611119724660636   0.388903686880866   0.875000000000000   1.0000000
B2   B   0.777764602300269   0.888872756413225   0.875000000000000   1.0000000
B2   B   0.944420954787496   0.388897794900860   0.875000000000000   1.0000000
B2   B   0.110750648749936   0.388699784120599   0.375000000000000   1.0000000
B2   B   0.278222617287910   0.890107920625524   0.375000000000000   1.0000000
B2   B   0.610654494397499   0.888241831668852   0.375000000000000   1.0000000
B2   B   0.943902164850629   0.888257918572544   0.375000000000000   1.0000000
B2   B   0.779315788962015   0.386987538524856   0.375000000000000   1.0000000
B2   B   0.277789395654363   0.555571335029538   0.875000000000000   1.0000000
B2   B   0.111113070044550   0.055548528429707   0.875000000000000   1.0000000
B2   B   0.611116286191676   0.555532445873673   0.875000000000000   1.0000000
B2   B   0.444459663774605   0.055571580983278   0.875000000000000   1.0000000
B2   B   0.944419973617755   0.555549045113719   0.875000000000000   1.0000000
B2   B   0.111344457649804   0.556054625623160   0.375000000000000   1.0000000
B2   B   0.777761386822719   0.055554544298155   0.875000000000000   1.0000000
B2   B   0.278473536557020   0.057228682020567   0.375000000000000   1.0000000
B2   B   0.445193430463005   0.556446758292814   0.375000000000000   1.0000000
B2   B   0.777436113161212   0.556742748780102   0.375000000000000   1.0000000
B2   B   0.611208049730520   0.055175684461476   0.375000000000000   1.0000000
B2   B   0.444474451954874   0.555564496278682   0.875000000000000   1.0000000
B2   B   0.943615680041633   0.054571127082083   0.375000000000000   1.0000000
B2   B   0.277780338619793   0.722231502571183   0.875000000000000   1.0000000
B2   B   0.111112001688391   0.222223488526785   0.875000000000000   1.0000000
B2   B   0.444490170247685   0.222250162494173   0.875000000000000   1.0000000
B2   B   0.611112363306316   0.722207730082932   0.875000000000000   1.0000000
B2   B   0.944423212533406   0.722200100820231   0.875000000000000   1.0000000
B2   B   0.777756437941777   0.222236899420543   0.875000000000000   1.0000000
B2   B   0.111538627586340   0.723021715540492   0.375000000000000   1.0000000
B2   B   0.444134606422954   0.722128854582442   0.375000000000000   1.0000000
B2   B   0.276158338630992   0.223831730955323   0.375000000000000   1.0000000
B2   B   0.776089274655201   0.720193129949633   0.375000000000000   1.0000000
B2   B   0.613914393167235   0.222678739643560   0.375000000000000   1.0000000
B2   B   0.944065817535893   0.221497790476074   0.375000000000000   1.0000000
B2   B   0.111105562052120   0.388897851991311   0.875000000000000   1.0000000
B2   B   0.277785256906170   0.888892992663053   0.875000000000000   1.0000000
B2   B   0.611106155014854   0.888889701171337   0.875000000000000   1.0000000
B2   B   0.444505155785175   0.388913987896784   0.875000000000000   1.0000000
B2   B   0.944429636856697   0.888868800075537   0.875000000000000   1.0000000
B2   B   0.111550785891031   0.889740544945350   0.375000000000000   1.0000000
B2   B   0.777751896809815   0.388902939353017   0.875000000000000   1.0000000
B2   B   0.444380836836487   0.889535603493259   0.375000000000000   1.0000000
B2   B   0.274631464763507   0.387050672401466   0.375000000000000   1.0000000
B2   B   0.277377616092767   0.555871642741110   0.375000000000000   1.0000000
B2   B   0.776998772290762   0.887658227651152   0.375000000000000   1.0000000
B2   B   0.945307901386199   0.388690120326902   0.375000000000000   1.0000000
B2   B   0.111100162522745   0.555560948791681   0.875000000000000   1.0000000
B2   B   0.277799764614352   0.055561762359139   0.875000000000000   1.0000000
B2   B   0.777752655763444   0.555532945906393   0.875000000000000   1.0000000
B2   B   0.611104884305349   0.055568521742671   0.875000000000000   1.0000000
B2   B   0.944429804505458   0.055544489444386   0.875000000000000   1.0000000
B2   B   0.055521056158629   0.111074278408989   0.124969153811217   1.0000000
B2   B   0.555699676824140   0.611064419763007   0.125150603060382   1.0000000
B2   B   0.388986961264710   0.111236255105725   0.125070640571191   1.0000000
B2   B   0.888757549925691   0.611038748937414   0.125078614262673   1.0000000
B2   B   0.722233996576754   0.111135946849641   0.124989865860167   1.0000000
B2   B   0.055492472972923   0.777741206976172   0.625010788370122   1.0000000
B2   B   0.388900590132517   0.777792913617843   0.625007624560466   1.0000000
B2   B   0.222220063124211   0.277762120234554   0.625009068131116   1.0000000
B2   B   0.722252592071969   0.777749532538761   0.625017066144351   1.0000000
B2   B   0.555740508474274   0.278035742907259   0.624556580836171   1.0000000
B2   B   0.888859013692457   0.277780797575092   0.625013833890305   1.0000000
B2   B   0.222192723539647   0.777780140463911   0.124990654308299   1.0000000
B2   B   0.055514927122511   0.277762237214363   0.124953897073641   1.0000000
B2   B   0.389066997031880   0.277901382837813   0.125399434952931   1.0000000
B2   B   0.555609818726164   0.777770592971994   0.124976207239241   1.0000000
B2   B   0.888843512922201   0.777730086613564   0.125001653135815   1.0000000
B2   B   0.722218396983595   0.277842453020460   0.125036369359041   1.0000000
B2   B   0.055525045968341   0.944409340472612   0.625007536624363   1.0000000
B2   B   0.388916913910912   0.944500551096960   0.625010991383511   1.0000000
B2   B   0.222218475720552   0.444446573840340   0.625014165254619   1.0000000
B2   B   0.555765671439453   0.444417870873740   0.623653551481867   1.0000000
B2   B   0.722239629189167   0.944439494800307   0.625008729362760   1.0000000
B2   B   0.888788058642881   0.444421302070867   0.624954695390423   1.0000000
B2   B   0.055500228415744   0.444441290896688   0.124979287147163   1.0000000
B2   B   0.222220689959961   0.944453185836562   0.124991108494785   1.0000000
B2   B   0.555582440882055   0.944475448576953   0.124993804325202   1.0000000
B2   B   0.389037847556934   0.444428797390078   0.125323018327051   1.0000000
B2   B   0.888875584020408   0.944415100144732   0.124996525883281   1.0000000
B2   B   0.722077588943296   0.444386656932385   0.125435289066620   1.0000000
B2   B   0.222192535744976   0.611113777178215   0.625014357864112   1.0000000
B2   B   0.055521056158629   0.111074278408989   0.625030846188783   1.0000000
B2   B   0.555699676824140   0.611064419763007   0.624849396939619   1.0000000
B2   B   0.388986961264710   0.111236255105725   0.624929359428809   1.0000000
B2   B   0.888757549925691   0.611038748937414   0.624921385737328   1.0000000
B2   B   0.055470811901748   0.611086709880435   0.124990397464676   1.0000000
B2   B   0.722233996576754   0.111135946849641   0.625010134139833   1.0000000
B2   B   0.222235894085509   0.111108742477023   0.125008702168960   1.0000000
B2   B   0.388942011562984   0.611106505281943   0.125012533122003   1.0000000
B2   B   0.722178394670429   0.611024784203899   0.125247627949307   1.0000000
B2   B   0.555625243631977   0.111230657530277   0.125037898788459   1.0000000
B2   B   0.388942011562984   0.611106505281943   0.624987466877997   1.0000000
B2   B   0.888872404007065   0.111096744041082   0.124986517970765   1.0000000
B2   B   0.222192723539647   0.777780140463911   0.625009345691700   1.0000000
B2   B   0.055514927122511   0.277762237214363   0.625046102926359   1.0000000
B2   B   0.389066997031880   0.277901382837813   0.624600565047070   1.0000000
B2   B   0.555609818726164   0.777770592971994   0.625023792760759   1.0000000
B2   B   0.888843512922201   0.777730086613564   0.624998346864186   1.0000000
B2   B   0.722218396983595   0.277842453020460   0.624963630640959   1.0000000
B2   B   0.055492472972923   0.777741206976172   0.124989211629877   1.0000000
B2   B   0.388900590132517   0.777792913617843   0.124992375439534   1.0000000
B2   B   0.222220063124211   0.277762120234554   0.124990931868884   1.0000000
B2   B   0.722252592071969   0.777749532538761   0.124982933855650   1.0000000
B2   B   0.555740508474274   0.278035742907259   0.125443419163829   1.0000000
B2   B   0.888859013692457   0.277780797575092   0.124986166109695   1.0000000
B2   B   0.055500228415744   0.444441290896688   0.625020712852837   1.0000000
B2   B   0.222220689959961   0.944453185836562   0.625008891505215   1.0000000
B2   B   0.555582440882055   0.944475448576953   0.625006195674798   1.0000000
B2   B   0.389037847556934   0.444428797390078   0.624676981672949   1.0000000
B2   B   0.888875584020408   0.944415100144732   0.625003474116719   1.0000000
B2   B   0.055525045968341   0.944409340472612   0.124992463375637   1.0000000
B2   B   0.722077588943296   0.444386656932385   0.624564710933380   1.0000000
B2   B   0.388916913910912   0.944500551096960   0.124989008616489   1.0000000
B2   B   0.222218475720552   0.444446573840340   0.124985834745381   1.0000000
B2   B   0.222192535744976   0.611113777178215   0.124985642135888   1.0000000
B2   B   0.555765671439453   0.444417870873740   0.126346448518133   1.0000000
B2   B   0.722239629189167   0.944439494800307   0.124991270637240   1.0000000
B2   B   0.888788058642881   0.444421302070867   0.125045304609577   1.0000000
B2   B   0.055470811901748   0.611086709880435   0.625009602535323   1.0000000
B2   B   0.222235894085509   0.111108742477023   0.624991297831040   1.0000000
B2   B   0.722178394670429   0.611024784203899   0.624752372050694   1.0000000
B2   B   0.555625243631977   0.111230657530277   0.624962101211541   1.0000000
B2   B   0.888872404007065   0.111096744041082   0.625013482029235   1.0000000


