data_1
_audit_creation_method   'vasp2cif'
_cell_length_a    14.93631414619966
_cell_length_b    14.936314146199727
_cell_length_c    13.341276283792837
_cell_angle_alpha    90.0
_cell_angle_beta    90.0
_cell_angle_gamma    119.99999999999984

_symmetry_space_group_name_H-M    'P 1'
loop_
_atom_site_label
_atom_site_type_symbol
_atom_site_fract_x
_atom_site_fract_y
_atom_site_fract_z
_atom_site_occupancy
P2   P   0.444444444444443   0.388888888888886   0.375000000000000   1.0000000
N2   N   0.111139764622897   0.055592491506623   0.125964800285092   1.0000000
N2   N   0.611046256166650   0.555492785083458   0.123770251298076   1.0000000
N2   N   0.444452726883751   0.055592491506623   0.125964800285092   1.0000000
N2   N   0.944431068564746   0.555541158435678   0.125343174416373   1.0000000
N2   N   0.777777777777779   0.055555555555557   0.125399933121442   1.0000000
N2   N   0.111111111111114   0.722222222222221   0.625213119312100   1.0000000
N2   N   0.444452726883751   0.722193568710464   0.624035199714897   1.0000000
N2   N   0.277840548249882   0.222287077166789   0.626229748701866   1.0000000
N2   N   0.777740841826704   0.722193568710464   0.624035199714897   1.0000000
N2   N   0.611105538216187   0.222227795117180   0.624216534731335   1.0000000
N2   N   0.944442121800021   0.222217252052633   0.624257167483325   1.0000000
N2   N   0.277792174897694   0.722223243462390   0.125343174416375   1.0000000
N2   N   0.111122256901024   0.222227795117180   0.125783465268616   1.0000000
N2   N   0.444446528916903   0.222287077166789   0.123770251298072   1.0000000
N2   N   0.611105538216187   0.722211076432295   0.125783465268616   1.0000000
N2   N   0.944431068564746   0.722223243462390   0.125343174416375   1.0000000
N2   N   0.777775130252558   0.222217252052633   0.125742832516683   1.0000000
N2   N   0.111110089870949   0.888902264768582   0.624656825583664   1.0000000
N2   N   0.444446242137826   0.888889787735591   0.624221422926432   1.0000000
N2   N   0.277840548249882   0.388886804416425   0.626229748701866   1.0000000
N2   N   0.611046256166650   0.388886804416425   0.626229748701866   1.0000000
N2   N   0.777775130252558   0.888891211533308   0.624257167483325   1.0000000
N2   N   0.944443545597738   0.388887091195503   0.624221422926432   1.0000000
N2   N   0.111139764622897   0.388880606449578   0.125964800285092   1.0000000
N2   N   0.277792174897694   0.888902264768582   0.125343174416373   1.0000000
N2   N   0.611116081280695   0.888891211533308   0.125742832516683   1.0000000
N2   N   0.444444444444443   0.388888888888886   0.114595682263094   1.0000000
N2   N   0.944443545597738   0.888889787735591   0.125778577073551   1.0000000
N2   N   0.777740841826704   0.388880606449578   0.125964800285092   1.0000000
N2   N   0.277795880472339   0.555537452861088   0.624489863065672   1.0000000
N2   N   0.111139764622897   0.055592491506623   0.624035199714897   1.0000000
N2   N   0.611046256166650   0.555492785083458   0.626229748701866   1.0000000
N2   N   0.444452726883751   0.055592491506623   0.624035199714897   1.0000000
N2   N   0.944431068564746   0.555541158435678   0.624656825583664   1.0000000
N2   N   0.111110089870949   0.555541158435678   0.125343174416373   1.0000000
N2   N   0.777777777777779   0.055555555555557   0.624600066878581   1.0000000
N2   N   0.277795880472339   0.055591760944670   0.125510136934312   1.0000000
N2   N   0.444446528916903   0.555492785083458   0.123770251298076   1.0000000
N2   N   0.777741572388658   0.555537452861088   0.125510136934312   1.0000000
N2   N   0.611116081280695   0.055558203080705   0.125742832516683   1.0000000
N2   N   0.444446528916903   0.555492785083458   0.626229748701866   1.0000000
N2   N   0.944442121800021   0.055558203080704   0.125742832516683   1.0000000
N2   N   0.277792174897694   0.722223243462390   0.624656825583664   1.0000000
N2   N   0.111122256901024   0.222227795117180   0.624216534731335   1.0000000
N2   N   0.444446528916903   0.222287077166789   0.626229748701866   1.0000000
N2   N   0.611105538216187   0.722211076432295   0.624216534731335   1.0000000
N2   N   0.944431068564746   0.722223243462390   0.624656825583664   1.0000000
N2   N   0.777775130252558   0.222217252052633   0.624257167483310   1.0000000
N2   N   0.111111111111114   0.722222222222221   0.124786880687914   1.0000000
N2   N   0.444452726883751   0.722193568710464   0.125964800285092   1.0000000
N2   N   0.277840548249882   0.222287077166789   0.123770251298076   1.0000000
N2   N   0.777740841826704   0.722193568710464   0.125964800285092   1.0000000
N2   N   0.611105538216187   0.222227795117180   0.125783465268616   1.0000000
N2   N   0.944442121800021   0.222217252052633   0.125742832516683   1.0000000
N2   N   0.111139764622897   0.388880606449578   0.624035199714897   1.0000000
N2   N   0.277792174897694   0.888902264768582   0.624656825583664   1.0000000
N2   N   0.611116081280695   0.888891211533308   0.624257167483325   1.0000000
N2   N   0.444444444444443   0.388888888888886   0.635404317736915   1.0000000
N2   N   0.944443545597738   0.888889787735591   0.624221422926432   1.0000000
N2   N   0.111110089870949   0.888902264768582   0.125343174416373   1.0000000
N2   N   0.777740841826704   0.388880606449578   0.624035199714897   1.0000000
N2   N   0.444446242137826   0.888889787735591   0.125778577073551   1.0000000
N2   N   0.277840548249882   0.388886804416425   0.123770251298076   1.0000000
N2   N   0.277795880472339   0.555537452861088   0.125510136934312   1.0000000
N2   N   0.611046256166650   0.388886804416425   0.123770251298076   1.0000000
N2   N   0.777775130252558   0.888891211533308   0.125742832516683   1.0000000
N2   N   0.944443545597738   0.388887091195503   0.125778577073551   1.0000000
N2   N   0.111110089870949   0.555541158435678   0.624656825583664   1.0000000
N2   N   0.277795880472339   0.055591760944673   0.624489863065672   1.0000000
N2   N   0.777741572388658   0.555537452861088   0.624489863065672   1.0000000
N2   N   0.611116081280695   0.055558203080704   0.624257167483325   1.0000000
N2   N   0.944442121800021   0.055558203080704   0.624257167483310   1.0000000
N2   N   0.054800493092989   0.110610311123996   0.375000000000000   1.0000000
N2   N   0.555932784088669   0.611865568177384   0.375000000000000   1.0000000
N2   N   0.387929326539723   0.106515701122710   0.375000000000000   1.0000000
N2   N   0.890543607797193   0.611938470565281   0.375000000000000   1.0000000
N2   N   0.722352782713168   0.110980550620208   0.375000000000000   1.0000000
N2   N   0.055555536538196   0.777777796795148   0.875000000000000   1.0000000
N2   N   0.388885629132173   0.777779700371153   0.875000000000000   1.0000000
N2   N   0.222211850163446   0.277772591748390   0.875000000000000   1.0000000
N2   N   0.722228033940432   0.777778446466457   0.875000000000000   1.0000000
N2   N   0.555560741584982   0.277772591748390   0.875000000000000   1.0000000
N2   N   0.888891836723538   0.277783673447067   0.875000000000000   1.0000000
N2   N   0.221894964867099   0.777614149100275   0.375000000000000   1.0000000
N2   N   0.054800493092989   0.277523515302314   0.375000000000000   1.0000000
N2   N   0.380967236720534   0.261934473441049   0.375000000000000   1.0000000
N2   N   0.555809818031053   0.778532840240395   0.375000000000000   1.0000000
N2   N   0.890175751981131   0.778786769019279   0.375000000000000   1.0000000
N2   N   0.722723022209326   0.277523515302314   0.375000000000000   1.0000000
N2   N   0.055553632962218   0.944439262094403   0.875000000000000   1.0000000
N2   N   0.388885629132173   0.944439262094403   0.875000000000000   1.0000000
N2   N   0.222215318070188   0.444448649925238   0.875000000000000   1.0000000
N2   N   0.555577731626054   0.444455532479691   0.875000000000000   1.0000000
N2   N   0.722220311151581   0.944440622303124   0.875000000000000   1.0000000
N2   N   0.888894071238925   0.444447704201156   0.875000000000000   1.0000000
N2   N   0.054546564314087   0.444722316295244   0.375000000000000   1.0000000
N2   N   0.221394862768052   0.942789725536135   0.375000000000000   1.0000000
N2   N   0.555749995406658   0.944541664370008   0.375000000000000   1.0000000
N2   N   0.380967236720534   0.452366096612794   0.375000000000000   1.0000000
N2   N   0.888791668963321   0.944541664370008   0.375000000000000   1.0000000
N2   N   0.726817632210634   0.445404006793605   0.375000000000000   1.0000000
N2   N   0.222219672579863   0.611113660753438   0.875000000000000   1.0000000
N2   N   0.055554886866869   0.111105299392910   0.875000000000000   1.0000000
N2   N   0.555560741584982   0.611121483169892   0.875000000000000   1.0000000
N2   N   0.388884683408091   0.111100001478308   0.875000000000000   1.0000000
N2   N   0.888893988173614   0.611113660753438   0.875000000000000   1.0000000
N2   N   0.055719184233117   0.611438368466264   0.375000000000000   1.0000000
N2   N   0.722220311151581   0.111113022181771   0.875000000000000   1.0000000
N2   N   0.218586374582989   0.106515701122710   0.375000000000000   1.0000000
N2   N   0.387929326539723   0.614746958750349   0.375000000000000   1.0000000
N2   N   0.726817632210634   0.614746958750349   0.375000000000000   1.0000000
N2   N   0.555809818031053   0.110610311123996   0.375000000000000   1.0000000
N2   N   0.388884683408091   0.611118015263099   0.875000000000000   1.0000000
N2   N   0.888627767907043   0.110980550620208   0.375000000000000   1.0000000
N2   N   0.222222260256932   0.777777796795148   0.875000000000000   1.0000000
N2   N   0.055554886866869   0.277782920807319   0.875000000000000   1.0000000
N2   N   0.388877800853637   0.277755601707283   0.875000000000000   1.0000000
N2   N   0.555550412526076   0.777778446466457   0.875000000000000   1.0000000
N2   N   0.888894071238925   0.777779700371153   0.875000000000000   1.0000000
N2   N   0.722228033940432   0.277782920807319   0.875000000000000   1.0000000
N2   N   0.055719184233117   0.777614149100275   0.375000000000000   1.0000000
N2   N   0.388611017038085   0.778786769019279   0.375000000000000   1.0000000
N2   N   0.221467765155983   0.277400549244644   0.375000000000000   1.0000000
N2   N   0.722723022209326   0.778532840240395   0.375000000000000   1.0000000
N2   N   0.555932784088669   0.277400549244644   0.375000000000000   1.0000000
N2   N   0.888791668963321   0.277583337926677   0.375000000000000   1.0000000
N2   N   0.055553632962218   0.444447704201156   0.875000000000000   1.0000000
N2   N   0.222219672579863   0.944439345159714   0.875000000000000   1.0000000
N2   N   0.555549659886268   0.944441496609790   0.875000000000000   1.0000000
N2   N   0.388877800853637   0.444455532479691   0.875000000000000   1.0000000
N2   N   0.888891836723538   0.944441496609790   0.875000000000000   1.0000000
N2   N   0.054546564314087   0.943157581352197   0.375000000000000   1.0000000
N2   N   0.722233331855057   0.444448649925238   0.875000000000000   1.0000000
N2   N   0.388611017038085   0.943157581352197   0.375000000000000   1.0000000
N2   N   0.218586374582989   0.445404006793605   0.375000000000000   1.0000000
N2   N   0.221394862768052   0.611938470565281   0.375000000000000   1.0000000
N2   N   0.571398859892260   0.452366096612794   0.375000000000000   1.0000000
N2   N   0.722352782713168   0.944705565426286   0.375000000000000   1.0000000
N2   N   0.890175751981131   0.444722316295244   0.375000000000000   1.0000000
N2   N   0.055555536538196   0.611111073076384   0.875000000000000   1.0000000
N2   N   0.222215318070188   0.111100001478308   0.875000000000000   1.0000000
N2   N   0.722233331855057   0.611118015263099   0.875000000000000   1.0000000
N2   N   0.555550412526076   0.111105299392910   0.875000000000000   1.0000000
N2   N   0.888892711030204   0.111113022181771   0.875000000000000   1.0000000
B2   B   0.108737444623452   0.053295788305120   0.375000000000000   1.0000000
B2   B   0.617247969483915   0.560797545470002   0.375000000000000   1.0000000
B2   B   0.444558343681686   0.053295788305120   0.375000000000000   1.0000000
B2   B   0.945227809910766   0.555743466580160   0.375000000000000   1.0000000
B2   B   0.777777777777779   0.055555555555557   0.375000000000000   1.0000000
B2   B   0.111111111111114   0.722222222222221   0.875000000000000   1.0000000
B2   B   0.444434142785820   0.722193206293451   0.875000000000000   1.0000000
B2   B   0.277843922705448   0.222251911265404   0.875000000000000   1.0000000
B2   B   0.777759063507560   0.722193206293451   0.875000000000000   1.0000000
B2   B   0.611102029663758   0.222231303669515   0.875000000000000   1.0000000
B2   B   0.944479237709296   0.222223714163489   0.875000000000000   1.0000000
B2   B   0.277589866753134   0.722817676663927   0.375000000000000   1.0000000
B2   B   0.110279872526572   0.221806602929952   0.375000000000000   1.0000000
B2   B   0.443549575986074   0.216085363849390   0.375000000000000   1.0000000
B2   B   0.611526730403349   0.723053460806751   0.375000000000000   1.0000000
B2   B   0.945227809910766   0.722817676663927   0.375000000000000   1.0000000
B2   B   0.777802166151109   0.221871026859644   0.375000000000000   1.0000000
B2   B   0.111089588142003   0.888882637634576   0.875000000000000   1.0000000
B2   B   0.444401640847807   0.888867487090577   0.875000000000000   1.0000000
B2   B   0.277843922705448   0.388925344773392   0.875000000000000   1.0000000
B2   B   0.611081422067937   0.388925344773392   0.875000000000000   1.0000000
B2   B   0.777744476454221   0.888854095624033   0.875000000000000   1.0000000
B2   B   0.944465846242752   0.388931692485522   0.875000000000000   1.0000000
B2   B   0.108737444623451   0.388774989651642   0.375000000000000   1.0000000
B2   B   0.277589866753134   0.888105523422562   0.375000000000000   1.0000000
B2   B   0.611462306473707   0.889264472624843   0.375000000000000   1.0000000
B2   B   0.944353511327978   0.888979822005351   0.375000000000000   1.0000000
B2   B   0.780037545028185   0.388774989651642   0.375000000000000   1.0000000
B2   B   0.277807167325681   0.555526166007659   0.875000000000000   1.0000000
B2   B   0.111140127039893   0.055574269825697   0.875000000000000   1.0000000
B2   B   0.611081422067937   0.555489410627899   0.875000000000000   1.0000000
B2   B   0.444434142785820   0.055574269825697   0.875000000000000   1.0000000
B2   B   0.944450695698753   0.555540283840783   0.875000000000000   1.0000000
B2   B   0.110515656669438   0.555743466580160   0.375000000000000   1.0000000
B2   B   0.777777777777779   0.055555555555557   0.875000000000000   1.0000000
B2   B   0.276546451612124   0.053092903224286   0.375000000000000   1.0000000
B2   B   0.443549575986074   0.560797545470002   0.375000000000000   1.0000000
B2   B   0.780240430109087   0.556786881721179   0.375000000000000   1.0000000
B2   B   0.611462306473707   0.055531167182216   0.375000000000000   1.0000000
B2   B   0.444407988559937   0.555489410627899   0.875000000000000   1.0000000
B2   B   0.944068860708486   0.055531167182216   0.375000000000000   1.0000000
B2   B   0.277793049492558   0.722243745191328   0.875000000000000   1.0000000
B2   B   0.111129274005702   0.222231303669515   0.875000000000000   1.0000000
B2   B   0.444407988559937   0.222251911265404   0.875000000000000   1.0000000
B2   B   0.611102029663758   0.722204059327624   0.875000000000000   1.0000000
B2   B   0.944450695698753   0.722243745191328   0.875000000000000   1.0000000
B2   B   0.777744476454221   0.222223714163489   0.875000000000000   1.0000000
B2   B   0.111111111111114   0.722222222222221   0.375000000000000   1.0000000
B2   B   0.444558343681686   0.724595888709893   0.375000000000000   1.0000000
B2   B   0.272535787863325   0.216085363849390   0.375000000000000   1.0000000
B2   B   0.780037545028185   0.724595888709893   0.375000000000000   1.0000000
B2   B   0.611526730403349   0.221806602929952   0.375000000000000   1.0000000
B2   B   0.944068860708486   0.221871026859644   0.375000000000000   1.0000000
B2   B   0.111140127039893   0.388899190547508   0.875000000000000   1.0000000
B2   B   0.277793049492558   0.888882637634576   0.875000000000000   1.0000000
B2   B   0.611109619169792   0.888854095624033   0.875000000000000   1.0000000
B2   B   0.444444444444443   0.388888888888886   0.875000000000000   1.0000000
B2   B   0.944465846242752   0.888867487090577   0.875000000000000   1.0000000
B2   B   0.110515656669438   0.888105523422562   0.375000000000000   1.0000000
B2   B   0.777759063507560   0.388899190547508   0.875000000000000   1.0000000
B2   B   0.444626310677325   0.888979822005351   0.375000000000000   1.0000000
B2   B   0.272535787863325   0.389783757347255   0.375000000000000   1.0000000
B2   B   0.276546451612124   0.556786881721179   0.375000000000000   1.0000000
B2   B   0.617247969483915   0.389783757347255   0.375000000000000   1.0000000
B2   B   0.777802166151109   0.889264472624843   0.375000000000000   1.0000000
B2   B   0.944353511327978   0.388707022656003   0.375000000000000   1.0000000
B2   B   0.111089588142003   0.555540283840783   0.875000000000000   1.0000000
B2   B   0.277807167325681   0.055614334651322   0.875000000000000   1.0000000
B2   B   0.777718998681974   0.555526166007659   0.875000000000000   1.0000000
B2   B   0.611109619169792   0.055588856879131   0.875000000000000   1.0000000
B2   B   0.944479237709296   0.055588856879131   0.875000000000000   1.0000000
B2   B   0.055585556674278   0.111189562482828   0.125942559758024   1.0000000
B2   B   0.555473642645494   0.610947285290965   0.124545608267119   1.0000000
B2   B   0.388923692530736   0.111330430880330   0.125348389800814   1.0000000
B2   B   0.888801353731027   0.611067343532169   0.125478317139482   1.0000000
B2   B   0.722197839063048   0.111135494270234   0.125653707089597   1.0000000
B2   B   0.055520636887990   0.777812696445326   0.624864959643663   1.0000000
B2   B   0.388897339893981   0.777769048736588   0.624211279006018   1.0000000
B2   B   0.222386048042355   0.277859690687853   0.625454391732887   1.0000000
B2   B   0.722143770850514   0.777747776659094   0.624057440241973   1.0000000
B2   B   0.555473642645494   0.277859690687853   0.625454391732887   1.0000000
B2   B   0.888882510568593   0.277765021137166   0.624183812038433   1.0000000
B2   B   0.222292059557340   0.777812696445326   0.125135040356302   1.0000000
B2   B   0.055585556674278   0.277729327524796   0.125942559758024   1.0000000
B2   B   0.389069380664173   0.278138761328391   0.121198113550629   1.0000000
B2   B   0.555604005808510   0.777747776659094   0.125942559758024   1.0000000
B2   B   0.888871708842604   0.777769048736588   0.125788720994028   1.0000000
B2   B   0.722143770850514   0.277729327524796   0.125942559758024   1.0000000
B2   B   0.055564284596781   0.944461624490724   0.624211279006018   1.0000000
B2   B   0.388897339893981   0.944461624490724   0.624211279006018   1.0000000
B2   B   0.222406738349561   0.444409640802593   0.624651610199190   1.0000000
B2   B   0.555194572004983   0.444263952669156   0.628801886449351   1.0000000
B2   B   0.722197839063048   0.944395678126170   0.624346292910353   1.0000000
B2   B   0.888871708842604   0.444435993439347   0.624211279006018   1.0000000
B2   B   0.055564284596781   0.444435993439347   0.125788720994028   1.0000000
B2   B   0.222265989801150   0.944531979602301   0.125478317139482   1.0000000
B2   B   0.555568312196150   0.944450822764735   0.125816187961589   1.0000000
B2   B   0.389069380664173   0.444263952669156   0.121198113550629   1.0000000
B2   B   0.888882510568593   0.944450822764735   0.125816187961589   1.0000000
B2   B   0.722002902452992   0.444409640802593   0.125348389800814   1.0000000
B2   B   0.222265989801150   0.611067343532169   0.624521682860531   1.0000000
B2   B   0.055585556674278   0.111189562482828   0.624057440241973   1.0000000
B2   B   0.555473642645494   0.610947285290965   0.625454391732887   1.0000000
B2   B   0.388923692530736   0.111330430880330   0.624651610199190   1.0000000
B2   B   0.888801353731027   0.611067343532169   0.624521682860531   1.0000000
B2   B   0.055520636887990   0.611041273775988   0.125135040356302   1.0000000
B2   B   0.722197839063048   0.111135494270234   0.624346292910353   1.0000000
B2   B   0.222406738349561   0.111330430880330   0.125348389800814   1.0000000
B2   B   0.388923692530736   0.610926594983771   0.125348389800814   1.0000000
B2   B   0.722002902452992   0.610926594983771   0.125348389800814   1.0000000
B2   B   0.555604005808511   0.111189562482828   0.125942559758024   1.0000000
B2   B   0.388923692530736   0.610926594983771   0.624651610199190   1.0000000
B2   B   0.888937655207158   0.111135494270234   0.125653707089597   1.0000000
B2   B   0.222292059557340   0.777812696445326   0.624864959643663   1.0000000
B2   B   0.055585556674278   0.277729327524796   0.624057440241973   1.0000000
B2   B   0.389069380664173   0.278138761328391   0.628801886449351   1.0000000
B2   B   0.555604005808510   0.777747776659094   0.624057440241973   1.0000000
B2   B   0.888871708842604   0.777769048736588   0.624211279006018   1.0000000
B2   B   0.722143770850514   0.277729327524796   0.624057440241973   1.0000000
B2   B   0.055520636887990   0.777812696445326   0.125135040356302   1.0000000
B2   B   0.388897339893981   0.777769048736588   0.125788720994028   1.0000000
B2   B   0.222386048042355   0.277859690687853   0.124545608267119   1.0000000
B2   B   0.722143770850514   0.777747776659092   0.125942559758024   1.0000000
B2   B   0.555473642645494   0.277859690687853   0.124545608267119   1.0000000
B2   B   0.888882510568593   0.277765021137166   0.125816187961589   1.0000000
B2   B   0.055564284596781   0.444435993439347   0.624211279006018   1.0000000
B2   B   0.222265989801150   0.944531979602301   0.624521682860531   1.0000000
B2   B   0.555568312196150   0.944450822764735   0.624183812038433   1.0000000
B2   B   0.389069380664173   0.444263952669156   0.628801886449351   1.0000000
B2   B   0.888882510568593   0.944450822764735   0.624183812038433   1.0000000
B2   B   0.055564284596781   0.944461624490724   0.125788720994028   1.0000000
B2   B   0.722002902452992   0.444409640802593   0.624651610199190   1.0000000
B2   B   0.388897339893981   0.944461624490724   0.125788720994028   1.0000000
B2   B   0.222406738349561   0.444409640802593   0.125348389800814   1.0000000
B2   B   0.222265989801150   0.611067343532169   0.125478317139482   1.0000000
B2   B   0.555194572004983   0.444263952669156   0.121198113550629   1.0000000
B2   B   0.722197839063048   0.944395678126170   0.125653707089597   1.0000000
B2   B   0.888871708842604   0.444435993439347   0.125788720994028   1.0000000
B2   B   0.055520636887990   0.611041273775988   0.624864959643663   1.0000000
B2   B   0.222406738349561   0.111330430880330   0.624651610199190   1.0000000
B2   B   0.722002902452992   0.610926594983771   0.624651610199190   1.0000000
B2   B   0.555604005808510   0.111189562482828   0.624057440241973   1.0000000
B2   B   0.888937655207158   0.111135494270234   0.624346292910353   1.0000000


