data_1
_audit_creation_method   'vasp2cif'
_cell_length_a    17.52789999999977
_cell_length_b    17.52789999999977
_cell_length_c    15.0
_cell_angle_alpha    90.0
_cell_angle_beta    90.0
_cell_angle_gamma    119.99999999999916

_symmetry_space_group_name_H-M    'P 1'
loop_
_atom_site_label
_atom_site_type_symbol
_atom_site_fract_x
_atom_site_fract_y
_atom_site_fract_z
_atom_site_occupancy
B2   B   0.905171177513797   0.953672800863262   0.111011989588450   1.0000000
B2   B   0.903933543316899   0.096068477879097   0.111029012544272   1.0000000
B2   B   0.903438001482136   0.238896810273852   0.111061657926232   1.0000000
B2   B   0.903308675757644   0.381656146384482   0.111007511243880   1.0000000
B2   B   0.903837102663851   0.524352989779570   0.111008476809155   1.0000000
B2   B   0.905822787888482   0.667563655216906   0.111049952510302   1.0000000
B2   B   0.906882130896447   0.811662945392015   0.111049509204799   1.0000000
B2   B   0.047690287981222   0.952311733214781   0.110998534207697   1.0000000
B2   B   0.046329220332740   0.094830843682199   0.111011989588450   1.0000000
B2   B   0.046048985852555   0.237989135045090   0.111012077181169   1.0000000
B2   B   0.046623436212149   0.380941622765267   0.111006055855291   1.0000000
B2   B   0.047728010663209   0.523547272903563   0.111010978988187   1.0000000
B2   B   0.048415293272834   0.666380480943067   0.111034991276498   1.0000000
B2   B   0.048477103017447   0.809503139413589   0.111003886788561   1.0000000
B2   B   0.190498881782415   0.951524918178556   0.111003886788561   1.0000000
B2   B   0.188339075803988   0.093119890299549   0.111049509204799   1.0000000
B2   B   0.187522179311322   0.236002909315171   0.111022424841529   1.0000000
B2   B   0.189069538682203   0.379805229922184   0.110997911968412   1.0000000
B2   B   0.191878437597887   0.522589039112963   0.111019047897466   1.0000000
B2   B   0.191841249461608   0.665546627969720   0.111055598324989   1.0000000
B2   B   0.191323572395561   0.808678448800443   0.111004932226652   1.0000000
B2   B   0.333621540253932   0.951586727923169   0.111034991276498   1.0000000
B2   B   0.332438365980091   0.094179233307514   0.111049952510302   1.0000000
B2   B   0.328324641119122   0.233481354973415   0.111001836853993   1.0000000
B2   B   0.328855501101418   0.376921746767938   0.110990501667203   1.0000000
B2   B   0.337055302760368   0.520426773212270   0.111059830969670   1.0000000
B2   B   0.335696376540902   0.664305644656097   0.111069809548483   1.0000000
B2   B   0.334455393227281   0.808160771734395   0.111055598324989   1.0000000
B2   B   0.476454748293436   0.952274010532794   0.111010978988187   1.0000000
B2   B   0.475649031417428   0.096164918532145   0.111008476809155   1.0000000
B2   B   0.474256526211233   0.240043896635134   0.111031385354668   1.0000000
B2   B   0.465602699690016   0.378955450578570   0.111049142614077   1.0000000
B2   B   0.479575247984728   0.662946718436630   0.111059830969670   1.0000000
B2   B   0.477412982084037   0.808123583598117   0.111019047897466   1.0000000
B2   B   0.619060398430737   0.953378584983854   0.111006055855291   1.0000000
B2   B   0.618345874811522   0.096693345438353   0.111007511243880   1.0000000
B2   B   0.617400706819924   0.240418083201296   0.111038366174775   1.0000000
B2   B   0.615475307535259   0.384526713660744   0.111067590453081   1.0000000
B2   B   0.621046570617434   0.534399321506983   0.111049142614077   1.0000000
B2   B   0.623080274428065   0.671146520095580   0.110990501667203   1.0000000
B2   B   0.620196791273820   0.810932482513801   0.110997911968412   1.0000000
B2   B   0.762012886150913   0.953953035343449   0.111012077181169   1.0000000
B2   B   0.761105210922152   0.096564019713859   0.111061657926232   1.0000000
B2   B   0.760412762653709   0.239589258542295   0.111072492787364   1.0000000
B2   B   0.759583937994708   0.382601314376079   0.111038366174775   1.0000000
B2   B   0.759958124560871   0.525745494985765   0.111031385354668   1.0000000
B2   B   0.766520666222589   0.671677380077876   0.111001836853993   1.0000000
B2   B   0.763999111880833   0.812479841884682   0.111022424841529   1.0000000
N2   N   0.953306719294385   0.906287283998627   0.111002165776261   1.0000000
N2   N   0.951612029339264   0.048389372578742   0.111006037485324   1.0000000
N2   N   0.950889558971770   0.191037514285357   0.111025558753448   1.0000000
N2   N   0.951055635384149   0.333972304938289   0.111005575839126   1.0000000
N2   N   0.951896765884526   0.476741002701753   0.110975687784042   1.0000000
N2   N   0.953176887540022   0.619566769244345   0.111019321576824   1.0000000
N2   N   0.953751544470386   0.762942592853689   0.111025712009420   1.0000000
N2   N   0.095483567214985   0.904517834703014   0.110964704834547   1.0000000
N2   N   0.093714117919372   0.046694682623620   0.111002165776261   1.0000000
N2   N   0.092634516208342   0.189362096617823   0.110996691440384   1.0000000
N2   N   0.093463475986259   0.332905200174768   0.110993012271583   1.0000000
N2   N   0.095548367238447   0.476003185008182   0.110987608023603   1.0000000
N2   N   0.096148788107579   0.618733531449431   0.111024603147654   1.0000000
N2   N   0.096102800959546   0.761620102848583   0.110982008418120   1.0000000
N2   N   0.238381299069423   0.903898600958453   0.110982008418120   1.0000000
N2   N   0.237058809064317   0.046249857447619   0.111025712009420   1.0000000
N2   N   0.233724438743796   0.186844914170464   0.111014377669368   1.0000000
N2   N   0.233757638763272   0.330210591294029   0.110980363055870   1.0000000
N2   N   0.239261044913740   0.474762378097092   0.111007328275070   1.0000000
N2   N   0.239623448508585   0.617937644404137   0.111046733801470   1.0000000
N2   N   0.239045177165171   0.760956224752835   0.111043975228586   1.0000000
N2   N   0.381267870468568   0.903852613810420   0.111024603147654   1.0000000
N2   N   0.380434632673654   0.046824514377984   0.111019321576824   1.0000000
N2   N   0.378678102546760   0.188620368309240   0.111013136290646   1.0000000
N2   N   0.372259276070497   0.325716251040339   0.110951773598695   1.0000000
N2   N   0.381255911403587   0.470099829236755   0.111021344247276   1.0000000
N2   N   0.383344443544730   0.616656958373269   0.111069541948319   1.0000000
N2   N   0.382063757513862   0.760377953409421   0.111046733801470   1.0000000
N2   N   0.523998216908815   0.904453034679552   0.110987608023603   1.0000000
N2   N   0.523260399215244   0.048104636033479   0.110975687784042   1.0000000
N2   N   0.522243360500057   0.191753979317411   0.111000231746105   1.0000000
N2   N   0.519940464344565   0.335606491301367   0.111035581395840   1.0000000
N2   N   0.529901572680242   0.618745490514412   0.111021344247276   1.0000000
N2   N   0.525239023819904   0.760740357004266   0.111007328275070   1.0000000
N2   N   0.667096201742229   0.906537925931739   0.110993012271583   1.0000000
N2   N   0.666029096978707   0.048945766533857   0.111005575839126   1.0000000
N2   N   0.665239632651655   0.192174182476376   0.111025622075093   1.0000000
N2   N   0.664158645193835   0.335842756723161   0.111045409287106   1.0000000
N2   N   0.664394910615629   0.480060937572431   0.111035581395840   1.0000000
N2   N   0.674285150876657   0.627742125847502   0.110951773598695   1.0000000
N2   N   0.669790810622968   0.766243763154733   0.110980363055870   1.0000000
N2   N   0.810639305300176   0.907366885709657   0.110996691440384   1.0000000
N2   N   0.808963887632642   0.049111842946236   0.111025558753448   1.0000000
N2   N   0.808217884669463   0.191783517248535   0.111067466082015   1.0000000
N2   N   0.807827219441623   0.334761769265342   0.111025622075093   1.0000000
N2   N   0.808247422600587   0.477758041416940   0.111000231746105   1.0000000
N2   N   0.811381033608758   0.621323299371237   0.111013136290646   1.0000000
N2   N   0.813156487747535   0.766276963174209   0.111014377669368   1.0000000
P2   P   0.501546342144814   0.498455679052183   0.111189504574141   1.0000000


