data_1
_audit_creation_method   'vasp2cif'
_cell_length_a    17.52789999999977
_cell_length_b    17.52789999999977
_cell_length_c    15.0
_cell_angle_alpha    90.0
_cell_angle_beta    90.0
_cell_angle_gamma    119.99999999999916

_symmetry_space_group_name_H-M    'P 1'
loop_
_atom_site_label
_atom_site_type_symbol
_atom_site_fract_x
_atom_site_fract_y
_atom_site_fract_z
_atom_site_occupancy
B2   B   0.902339810869699   0.949690490611324   0.110678529759591   1.0000000
B2   B   0.903906442196524   0.093557851771690   0.110514909571244   1.0000000
B2   B   0.905370857981924   0.237283133577985   0.110426121980317   1.0000000
B2   B   0.907656528297280   0.381200429543796   0.110862732506940   1.0000000
B2   B   0.908696948632406   0.524950327778651   0.111450010690367   1.0000000
B2   B   0.905478295195425   0.667213964688713   0.111338520238030   1.0000000
B2   B   0.901420962319398   0.806410879086783   0.110970081877119   1.0000000
B2   B   0.045930860838134   0.951860091419983   0.110868577519588   1.0000000
B2   B   0.046538149551890   0.094735465531807   0.110849426972279   1.0000000
B2   B   0.047247588367504   0.237873030859316   0.110587600449811   1.0000000
B2   B   0.048298868202597   0.381651736156428   0.110175504285132   1.0000000
B2   B   0.049156142638020   0.525595435512780   0.110262094416466   1.0000000
B2   B   0.048440626047325   0.668887822443956   0.110698109559464   1.0000000
B2   B   0.047552019785022   0.811070907977579   0.110903163236498   1.0000000
B2   B   0.191094045134274   0.955448251008187   0.110504247351942   1.0000000
B2   B   0.189773625062150   0.096330054989510   0.111072541792881   1.0000000
B2   B   0.190155351792657   0.239683974941732   0.112144821683991   1.0000000
B2   B   0.189472353533343   0.382489743113912   0.111490892918227   1.0000000
B2   B   0.189767189447794   0.526259277546302   0.110414185134728   1.0000000
B2   B   0.190055215570955   0.669829202582458   0.110150257951442   1.0000000
B2   B   0.190802503719343   0.812877883139271   0.110415098147380   1.0000000
B2   B   0.334309776501872   0.956774398539921   0.109996277886669   1.0000000
B2   B   0.335585986953181   0.100342829453800   0.109839462017729   1.0000000
B2   B   0.332962559960487   0.239553338188087   0.113925371552454   1.0000000
B2   B   0.333360373904180   0.384999908882163   0.115450732139555   1.0000000
B2   B   0.330309068085305   0.529159394776035   0.112280786657098   1.0000000
B2   B   0.330961773054449   0.670929572319078   0.110903042644620   1.0000000
B2   B   0.333094214715872   0.813551089324641   0.110346513466171   1.0000000
B2   B   0.476541647393390   0.955766096281197   0.110260091095588   1.0000000
B2   B   0.478087099264537   0.100963528286413   0.109685222859113   1.0000000
B2   B   0.480116333497876   0.248885476280680   0.109593525712732   1.0000000
B2   B   0.471142544945801   0.668869306226834   0.112223925806606   1.0000000
B2   B   0.475138413234782   0.811910185915401   0.110905279183712   1.0000000
B2   B   0.618502317269276   0.951594527113783   0.110693053816673   1.0000000
B2   B   0.619780217564846   0.095402945383353   0.110325520054530   1.0000000
B2   B   0.621938754310351   0.238589348631737   0.110284749625685   1.0000000
B2   B   0.630677126516527   0.381585701112664   0.110389846417141   1.0000000
B2   B   0.615484116354448   0.504269102909368   0.110133044598176   1.0000000
B2   B   0.614055185085770   0.657710130822251   0.111717833135290   1.0000000
B2   B   0.616897675219592   0.806597065375869   0.111228469281529   1.0000000
B2   B   0.760345723418907   0.949594474516257   0.110701852833477   1.0000000
B2   B   0.761839060886405   0.093732791779383   0.110578901001825   1.0000000
B2   B   0.763650038084407   0.237336941182079   0.110806261135506   1.0000000
B2   B   0.767772526822134   0.380994450604025   0.111540942469200   1.0000000
B2   B   0.768892155433873   0.524216446427772   0.111698885186868   1.0000000
B2   B   0.755950962956440   0.658839371982746   0.111035297266764   1.0000000
B2   B   0.757848828814793   0.804171974295134   0.110904904507300   1.0000000
N2   N   0.949727200051018   0.902214151385353   0.110824353349249   1.0000000
N2   N   0.950926148755669   0.045601660236369   0.110609217452034   1.0000000
N2   N   0.952276142591172   0.189273484886054   0.110350658461422   1.0000000
N2   N   0.953934975047175   0.332946073606503   0.110320416690178   1.0000000
N2   N   0.955041883741904   0.476780303841831   0.110858671312202   1.0000000
N2   N   0.953658300566060   0.620224505623707   0.111259384993785   1.0000000
N2   N   0.951768592857535   0.761959367207408   0.111093130138217   1.0000000
N2   N   0.095282156817611   0.906353708867125   0.110840931481892   1.0000000
N2   N   0.094270544049419   0.047585171066449   0.110876362599043   1.0000000
N2   N   0.095027843846514   0.190828796113837   0.111035584402206   1.0000000
N2   N   0.095386294469642   0.333826441685977   0.110442823858009   1.0000000
N2   N   0.095892872567036   0.477366082705819   0.109976904697621   1.0000000
N2   N   0.095718071961417   0.621059987036179   0.110185303416226   1.0000000
N2   N   0.095656913146473   0.764167944905418   0.110672725385315   1.0000000
N2   N   0.238942083533600   0.908295437154833   0.110311420303009   1.0000000
N2   N   0.239558928922737   0.051255017411867   0.110423615930965   1.0000000
N2   N   0.237434115377745   0.192104747471507   0.112214961400914   1.0000000
N2   N   0.238150204127864   0.336594439445722   0.112767373889098   1.0000000
N2   N   0.237337133717699   0.478338768262045   0.111330707237341   1.0000000
N2   N   0.237105785685026   0.621605840103487   0.110260858369706   1.0000000
N2   N   0.238198470224613   0.765062067080747   0.110218148205064   1.0000000
N2   N   0.381389139497173   0.908529753883196   0.110188382624956   1.0000000
N2   N   0.382692171529965   0.052526759916409   0.109523488291818   1.0000000
N2   N   0.384373309523046   0.197064083501435   0.110252234257872   1.0000000
N2   N   0.370481246404907   0.332114696227409   0.121146569095095   1.0000000
N2   N   0.380155362085920   0.483209603462004   0.113818596013451   1.0000000
N2   N   0.377970312666619   0.622397986228763   0.111965209626457   1.0000000
N2   N   0.380183399221919   0.765129158751518   0.110656152791723   1.0000000
N2   N   0.523308400990974   0.906391842980997   0.110598551355489   1.0000000
N2   N   0.524552204939054   0.051107625873372   0.110016335926758   1.0000000
N2   N   0.526556853839806   0.197625436093100   0.109613650506465   1.0000000
N2   N   0.538736704688160   0.346783881349754   0.108896277863794   1.0000000
N2   N   0.515753133471192   0.617269758495597   0.113117202445324   1.0000000
N2   N   0.521648450731214   0.762067919644029   0.111401286115224   1.0000000
N2   N   0.664774577192387   0.901698584009802   0.110845512282889   1.0000000
N2   N   0.666514755584927   0.046558202313392   0.110542365223903   1.0000000
N2   N   0.668288442346767   0.190072133848388   0.110460909527139   1.0000000
N2   N   0.673634760396976   0.332391315470529   0.110938073906737   1.0000000
N2   N   0.676169771830594   0.474685294049407   0.111162846232208   1.0000000
N2   N   0.655129321380101   0.603866815120954   0.110789121209202   1.0000000
N2   N   0.660865558619147   0.753960747971450   0.111301141121816   1.0000000
N2   N   0.806214141776305   0.900149287415991   0.110666877107313   1.0000000
N2   N   0.808482694962411   0.045087490972689   0.110555609551851   1.0000000
N2   N   0.810274406225383   0.189072312308458   0.110580748789857   1.0000000
N2   N   0.813251320729785   0.332631806346461   0.111276515540001   1.0000000
N2   N   0.814788767448865   0.476226747289164   0.111966930618883   1.0000000
N2   N   0.809934890093210   0.618121688616032   0.111427462012330   1.0000000
N2   N   0.803959981542898   0.755374187018134   0.110932626314294   1.0000000
O2   O   0.469615256048351   0.527280579087942   0.114952847758264   1.0000000
O2   O   0.528499790652653   0.425050399607024   0.108241548242073   1.0000000


