data_1
_audit_creation_method   'vasp2cif'
_cell_length_a    17.52789999999977
_cell_length_b    17.52789999999977
_cell_length_c    15.0
_cell_angle_alpha    90.0
_cell_angle_beta    90.0
_cell_angle_gamma    119.99999999999916

_symmetry_space_group_name_H-M    'P 1'
loop_
_atom_site_label
_atom_site_type_symbol
_atom_site_fract_x
_atom_site_fract_y
_atom_site_fract_z
_atom_site_occupancy
B2   B   0.902462488332388   0.949841216177206   0.106985227737501   1.0000000
B2   B   0.903778205892983   0.093178146653185   0.109785218058522   1.0000000
B2   B   0.904517303997734   0.236235206341594   0.109100308017434   1.0000000
B2   B   0.904717009602095   0.379213873634305   0.106308502490567   1.0000000
B2   B   0.905435356776086   0.522544167500602   0.103273061562789   1.0000000
B2   B   0.905424690948253   0.665894959248712   0.101735858415616   1.0000000
B2   B   0.903914482740804   0.808616204232693   0.101319825681276   1.0000000
B2   B   0.047136556163290   0.952560935584795   0.106935867886123   1.0000000
B2   B   0.047956762110628   0.095725806006129   0.107911954823172   1.0000000
B2   B   0.048186444656986   0.237866991879699   0.108359497239954   1.0000000
B2   B   0.047796231498068   0.380005614913442   0.107601171777426   1.0000000
B2   B   0.047264685576659   0.522915729476109   0.106726987223927   1.0000000
B2   B   0.047032517555293   0.666377252420500   0.106516987180047   1.0000000
B2   B   0.047107368348528   0.809648302577534   0.106070146036983   1.0000000
B2   B   0.190251487802470   0.953295918591321   0.108875306959273   1.0000000
B2   B   0.191024170940453   0.096747922619737   0.106684552557635   1.0000000
B2   B   0.194039227635807   0.242145299760257   0.106215910658303   1.0000000
B2   B   0.192212708588096   0.382229903469530   0.106920503206017   1.0000000
B2   B   0.189784071105282   0.523762162633911   0.107503496903219   1.0000000
B2   B   0.188304659800272   0.666773837454240   0.108944353402584   1.0000000
B2   B   0.189557104545864   0.810043963524941   0.109906319530068   1.0000000
B2   B   0.332895435040666   0.953035861234294   0.110722450892406   1.0000000
B2   B   0.333793073083605   0.096524595976821   0.109216738457209   1.0000000
B2   B   0.334746056535137   0.240503135269957   0.107246542336305   1.0000000
B2   B   0.343040340093035   0.391616056549387   0.109876197926788   1.0000000
B2   B   0.333697686059308   0.526242495993191   0.108620062935099   1.0000000
B2   B   0.328959418948186   0.667628136918127   0.109028083047844   1.0000000
B2   B   0.331857278480417   0.810105391127790   0.111198405494870   1.0000000
B2   B   0.475411568845688   0.951282255840333   0.111210126936667   1.0000000
B2   B   0.476235231537964   0.094868316693465   0.109973896134936   1.0000000
B2   B   0.477141341265633   0.238474769729142   0.115681939847062   1.0000000
B2   B   0.471868850596985   0.375511854051787   0.145647879428682   1.0000000
B2   B   0.493866978809047   0.582541403172393   0.119571053678674   1.0000000
B2   B   0.467543183746759   0.661532553948709   0.117251855139657   1.0000000
B2   B   0.473880064927125   0.807227066579548   0.112915594041455   1.0000000
B2   B   0.617450340817601   0.948688542004345   0.111579284640341   1.0000000
B2   B   0.618633044241059   0.093173618648545   0.110023094201333   1.0000000
B2   B   0.619292566562203   0.236944224527299   0.111041945256147   1.0000000
B2   B   0.620152009767850   0.380425894675643   0.126244326770552   1.0000000
B2   B   0.636617729824270   0.532364902697741   0.149598084972004   1.0000000
B2   B   0.610812629783814   0.650360581716064   0.107839948274151   1.0000000
B2   B   0.614493423356228   0.802137839951259   0.111273396586687   1.0000000
B2   B   0.759222284676745   0.948070929347924   0.109754940527437   1.0000000
B2   B   0.760953993687840   0.092400681480556   0.110539048044490   1.0000000
B2   B   0.761729117797909   0.235946616539144   0.108573141323107   1.0000000
B2   B   0.762130462560707   0.379169194923726   0.107816439729403   1.0000000
B2   B   0.764284503208757   0.522301049724632   0.109404392571453   1.0000000
B2   B   0.763672647931812   0.665183953039112   0.099450013841560   1.0000000
B2   B   0.756345069350707   0.802847735451847   0.103758890219132   1.0000000
N2   N   0.951715817161025   0.903995842737276   0.105251290254711   1.0000000
N2   N   0.951701278201208   0.046120419923763   0.108697120515508   1.0000000
N2   N   0.952270269103479   0.188889883053364   0.109585145051767   1.0000000
N2   N   0.952280312172428   0.331615067095925   0.107785671768432   1.0000000
N2   N   0.952407715732149   0.474565989269497   0.105034198818647   1.0000000
N2   N   0.952628374192734   0.618051827685967   0.103463355943854   1.0000000
N2   N   0.952285086461316   0.761516381486520   0.102125888787958   1.0000000
N2   N   0.094916301402280   0.905142229672889   0.107628572136811   1.0000000
N2   N   0.095396704000920   0.048096408543308   0.107469483475193   1.0000000
N2   N   0.097063783793640   0.191783034695347   0.107635774985064   1.0000000
N2   N   0.095983222579085   0.333069666856853   0.107602197793084   1.0000000
N2   N   0.094537821151488   0.475231716812747   0.107361214532403   1.0000000
N2   N   0.093700751755108   0.618379747485092   0.107801258427238   1.0000000
N2   N   0.094498201861586   0.761932619049441   0.108049716212397   1.0000000
N2   N   0.237535981848573   0.905428224828361   0.110381013089944   1.0000000
N2   N   0.238246657518632   0.048627199475547   0.108080053206999   1.0000000
N2   N   0.239215565496090   0.192133874079403   0.104772213790906   1.0000000
N2   N   0.243645399348555   0.338668781516536   0.106416895052966   1.0000000
N2   N   0.237825181121155   0.476775780807758   0.107199245716612   1.0000000
N2   N   0.234477366397528   0.618971834019312   0.108082560264436   1.0000000
N2   N   0.236519368453221   0.762268760467981   0.110368768133312   1.0000000
N2   N   0.380073904652011   0.905190678998194   0.111446916315235   1.0000000
N2   N   0.380881166869319   0.048116914818834   0.110048071545322   1.0000000
N2   N   0.381657695742285   0.191489718640811   0.110251375055938   1.0000000
N2   N   0.382890700282753   0.335351154551590   0.112533871015708   1.0000000
N2   N   0.392188284465058   0.489873532188078   0.110216433078451   1.0000000
N2   N   0.374116472574786   0.620434271961786   0.109020084247623   1.0000000
N2   N   0.378519119280924   0.762527564210879   0.111330249242835   1.0000000
N2   N   0.522280434377747   0.902913199465081   0.111991978580680   1.0000000
N2   N   0.523412404093692   0.046558997821262   0.110122722693706   1.0000000
N2   N   0.524142384482236   0.189841474606059   0.110849318539477   1.0000000
N2   N   0.524267282938755   0.332323014989855   0.129912489409090   1.0000000
N2   N   0.519396512483904   0.757819835700874   0.115260083745840   1.0000000
N2   N   0.663837002736290   0.899527490606171   0.110986913413815   1.0000000
N2   N   0.665676176815550   0.044720355698905   0.110870758261361   1.0000000
N2   N   0.666543357150731   0.188592004561785   0.109127067513348   1.0000000
N2   N   0.667016859162416   0.332055330105075   0.113359712415267   1.0000000
N2   N   0.671927587735536   0.475463366516255   0.128860681971312   1.0000000
N2   N   0.670836311146813   0.616319316032652   0.107228014171194   1.0000000
N2   N   0.659481943821479   0.751399136174273   0.106581273216986   1.0000000
N2   N   0.806301609013654   0.900118205758399   0.107150891050429   1.0000000
N2   N   0.808121108491141   0.044390660943757   0.110570621247018   1.0000000
N2   N   0.809094311858248   0.188045201040993   0.109571632357201   1.0000000
N2   N   0.809511566972562   0.331194231779656   0.106722393876756   1.0000000
N2   N   0.810895581564312   0.474209821051437   0.103647200947819   1.0000000
N2   N   0.811507297472711   0.617617438177616   0.101642729540297   1.0000000
N2   N   0.809032013110358   0.760264766408086   0.097683850602439   1.0000000
Ga2   Ga   0.525183251915991   0.490679531300412   0.222426351060771   1.0000000


