data_1
_audit_creation_method   'vasp2cif'
_cell_length_a    17.52789999999977
_cell_length_b    17.52789999999977
_cell_length_c    15.0
_cell_angle_alpha    90.0
_cell_angle_beta    90.0
_cell_angle_gamma    119.99999999999916

_symmetry_space_group_name_H-M    'P 1'
loop_
_atom_site_label
_atom_site_type_symbol
_atom_site_fract_x
_atom_site_fract_y
_atom_site_fract_z
_atom_site_occupancy
Ga2   Ga   0.494712821694079   0.505288580222918   0.111244423357591   1.0000000
B2   B   0.906108393173361   0.953250800876067   0.111017001359699   1.0000000
B2   B   0.904591981548716   0.095410039647281   0.111033290122774   1.0000000
B2   B   0.904097894898736   0.238165238494835   0.111038813517377   1.0000000
B2   B   0.904244069020822   0.381018277810524   0.110982080828212   1.0000000
B2   B   0.905567063946108   0.523989744653501   0.111002699457753   1.0000000
B2   B   0.907260934431161   0.667391537484247   0.111076833430065   1.0000000
B2   B   0.907824914446714   0.811175013044240   0.111044379310898   1.0000000
B2   B   0.048316880914320   0.951685140281684   0.111020170749591   1.0000000
B2   B   0.046751220319937   0.093893628022635   0.111017001359699   1.0000000
B2   B   0.046339411409949   0.237133094978140   0.110990192741952   1.0000000
B2   B   0.046764186157985   0.380358522937640   0.111017369251125   1.0000000
B2   B   0.048020389565269   0.523304740215450   0.110999300043274   1.0000000
B2   B   0.049098023331639   0.666220065821950   0.111057043424940   1.0000000
B2   B   0.049176271391640   0.809142285201272   0.111056664804128   1.0000000
B2   B   0.190859735994731   0.950825749804363   0.111056664804128   1.0000000
B2   B   0.188827008151764   0.092177106749282   0.111044379310898   1.0000000
B2   B   0.187186125301258   0.234371614007048   0.110994262101423   1.0000000
B2   B   0.188477932360547   0.379118397262012   0.111009363658425   1.0000000
B2   B   0.190599059564504   0.522576451089015   0.111063800776822   1.0000000
B2   B   0.191810506948644   0.665590584270459   0.111039396194097   1.0000000
B2   B   0.191600967697532   0.808401053498471   0.111027638392800   1.0000000
B2   B   0.333781955375048   0.950903997864365   0.111057043424940   1.0000000
B2   B   0.332610483712751   0.092741086764836   0.111076833430065   1.0000000
B2   B   0.328748748942357   0.231856473173122   0.110993617198539   1.0000000
B2   B   0.326757482703061   0.375198638817507   0.111052202454713   1.0000000
B2   B   0.333333836015666   0.520732846063879   0.111122925869495   1.0000000
B2   B   0.335106033721575   0.664895987475422   0.111111920611869   1.0000000
B2   B   0.334411436926540   0.808191514247360   0.111039396194097   1.0000000
B2   B   0.476697280981548   0.951981631630735   0.110999300043274   1.0000000
B2   B   0.476012276543497   0.094434957249888   0.111002699457753   1.0000000
B2   B   0.474670938153718   0.236197038581117   0.111009144801365   1.0000000
B2   B   0.466670933873850   0.370939745038548   0.111145876079421   1.0000000
B2   B   0.479269175133120   0.666668185181332   0.111122925869495   1.0000000
B2   B   0.477425570107983   0.809402961631499   0.111063800776822   1.0000000
B2   B   0.619643498258363   0.953237835038018   0.111017369251125   1.0000000
B2   B   0.618983743385479   0.095757952175174   0.110982080828212   1.0000000
B2   B   0.618396628435167   0.238656833015612   0.110982469209249   1.0000000
B2   B   0.617770795857816   0.382231225338187   0.111043146465936   1.0000000
B2   B   0.629062276157456   0.533331087323155   0.111145876079421   1.0000000
B2   B   0.624803382378497   0.673244538493936   0.111052202454713   1.0000000
B2   B   0.620883623933991   0.811524088835457   0.111009363658425   1.0000000
B2   B   0.762868926217863   0.953662609786055   0.110990192741952   1.0000000
B2   B   0.761836782701169   0.095904126297261   0.111038813517377   1.0000000
B2   B   0.761382699076808   0.238619322119196   0.111017866028955   1.0000000
B2   B   0.761345188180391   0.381605392760836   0.110982469209249   1.0000000
B2   B   0.763804982614886   0.525331083043280   0.111009144801365   1.0000000
B2   B   0.768145548022881   0.671253272254641   0.110993617198539   1.0000000
B2   B   0.765630407188962   0.812815895894739   0.110994262101423   1.0000000
N2   N   0.953917783026071   0.905602007014885   0.110985550549530   1.0000000
N2   N   0.952277381290486   0.047724020627520   0.110996085534148   1.0000000
N2   N   0.951473495224394   0.190301633724482   0.110996887529063   1.0000000
N2   N   0.951551750700318   0.333210686199984   0.110979494200399   1.0000000
N2   N   0.952618778109661   0.476099311193870   0.110939636250677   1.0000000
N2   N   0.953910467450458   0.619085452934806   0.111029513890329   1.0000000
N2   N   0.954387616260093   0.762389486827415   0.111043000656959   1.0000000
N2   N   0.096004846094559   0.903996555823440   0.110997666938823   1.0000000
N2   N   0.094399394903114   0.046083618891934   0.110985550549530   1.0000000
N2   N   0.092939278368039   0.188372134551049   0.110970423662703   1.0000000
N2   N   0.093518027444011   0.332122113565146   0.110966625732351   1.0000000
N2   N   0.095109579763196   0.475457120816391   0.111001799323975   1.0000000
N2   N   0.096370162327265   0.618423234442438   0.111001711335493   1.0000000
N2   N   0.096527086976832   0.761275720722393   0.111019670228329   1.0000000
N2   N   0.238725681195612   0.903474314941166   0.111019670228329   1.0000000
N2   N   0.237611915090591   0.045613785657912   0.111043000656959   1.0000000
N2   N   0.234655242626367   0.186292597475562   0.110966375906049   1.0000000
N2   N   0.233003917345641   0.328540553730164   0.110964032836154   1.0000000
N2   N   0.237151727450061   0.474365832763207   0.111052371416363   1.0000000
N2   N   0.239296758834291   0.617901809939488   0.111056977654670   1.0000000
N2   N   0.239188412763237   0.760812989154768   0.111003149794053   1.0000000
N2   N   0.381578167475561   0.903631239590734   0.111001711335493   1.0000000
N2   N   0.380915948983193   0.046090934467549   0.111029513890329   1.0000000
N2   N   0.379454404327822   0.187629839447192   0.110988213801611   1.0000000
N2   N   0.374064334954094   0.325676491733734   0.110980321665566   1.0000000
N2   N   0.373954583189413   0.467786272555985   0.111094601440933   1.0000000
N2   N   0.382840365379878   0.617161036538120   0.111130597987638   1.0000000
N2   N   0.382099591978511   0.760704643083715   0.111056977654670   1.0000000
N2   N   0.524544281100605   0.904891822154803   0.111001799323975   1.0000000
N2   N   0.523902090723127   0.047382623808345   0.110939636250677   1.0000000
N2   N   0.523182910296874   0.189899266695490   0.110949385900414   1.0000000
N2   N   0.521448672477067   0.332292545727174   0.111032149000121   1.0000000
N2   N   0.532215129361011   0.626046818728586   0.111094601440933   1.0000000
N2   N   0.525635569153790   0.762849674467952   0.111052371416363   1.0000000
N2   N   0.667879288351851   0.906483374473987   0.110966625732351   1.0000000
N2   N   0.666790715717013   0.048449651217688   0.110979494200399   1.0000000
N2   N   0.666171752436298   0.191205969111997   0.110953703692214   1.0000000
N2   N   0.665488062660622   0.334513339256375   0.110954629447319   1.0000000
N2   N   0.667708856189823   0.478552729439929   0.111032149000121   1.0000000
N2   N   0.674324910183262   0.625937066963904   0.110980321665566   1.0000000
N2   N   0.671460848186825   0.766997484572365   0.110964032836154   1.0000000
N2   N   0.811629267366950   0.907062123549960   0.110970423662703   1.0000000
N2   N   0.809699768193517   0.048527906693611   0.110996887529063   1.0000000
N2   N   0.808995470167987   0.191005931750011   0.111019494516741   1.0000000
N2   N   0.808795432806002   0.333829649480699   0.110953703692214   1.0000000
N2   N   0.810102135222508   0.476818491620116   0.110949385900414   1.0000000
N2   N   0.812371562470807   0.620546997590176   0.110988213801611   1.0000000
N2   N   0.813708804442437   0.765346159291639   0.110966375906049   1.0000000


