data_1
_audit_creation_method   'vasp2cif'
_cell_length_a    17.52789999999977
_cell_length_b    17.52789999999977
_cell_length_c    15.0
_cell_angle_alpha    90.0
_cell_angle_beta    90.0
_cell_angle_gamma    119.99999999999916

_symmetry_space_group_name_H-M    'P 1'
loop_
_atom_site_label
_atom_site_type_symbol
_atom_site_fract_x
_atom_site_fract_y
_atom_site_fract_z
_atom_site_occupancy
B2   B   0.905261588662215   0.952758071439269   0.111004606448107   1.0000000
B2   B   0.904594306144317   0.095165504894369   0.111037336675872   1.0000000
B2   B   0.904388992948918   0.237857394554182   0.111040756936877   1.0000000
B2   B   0.904592229290962   0.380763650174612   0.110996406432206   1.0000000
B2   B   0.905194199594835   0.523790181045013   0.111008703553991   1.0000000
B2   B   0.905840048026415   0.666927757945759   0.111069851139426   1.0000000
B2   B   0.905720252041933   0.809928520843658   0.111047004348890   1.0000000
B2   B   0.047763758026328   0.952320784459965   0.111005529865875   1.0000000
B2   B   0.047444650440464   0.095024258360712   0.111004959684230   1.0000000
B2   B   0.047014494139843   0.237821538802908   0.111004895513687   1.0000000
B2   B   0.046793586938313   0.380799511495748   0.111016669770422   1.0000000
B2   B   0.046949683884559   0.523774125614033   0.111009908935298   1.0000000
B2   B   0.047601270293272   0.666754095046233   0.111020109835602   1.0000000
B2   B   0.047937196749246   0.809623455292493   0.110998239976037   1.0000000
B2   B   0.190352773850188   0.952063293716644   0.111003840714482   1.0000000
B2   B   0.190100248985207   0.094593132878504   0.111046437677683   1.0000000
B2   B   0.189571755670309   0.237264041442096   0.111002291570558   1.0000000
B2   B   0.188978262886099   0.381037450857724   0.111008729611317   1.0000000
B2   B   0.188649862595478   0.524083758084440   0.111052051039825   1.0000000
B2   B   0.189491702046458   0.666606460464703   0.111060330632608   1.0000000
B2   B   0.190248649074037   0.809454674327137   0.111002378162560   1.0000000
B2   B   0.333048003279250   0.952026805324302   0.111034355808878   1.0000000
B2   B   0.332957578796675   0.094356907898222   0.111075993365085   1.0000000
B2   B   0.332440774761349   0.236432143551216   0.111032266423710   1.0000000
B2   B   0.330716379573046   0.377825546438600   0.111011393717903   1.0000000
B2   B   0.329971930215460   0.529818600293126   0.111071285761618   1.0000000
B2   B   0.332348507496620   0.665687706447144   0.111089941405353   1.0000000
B2   B   0.332635360897597   0.809369331099626   0.111049776496881   1.0000000
B2   B   0.475724062173173   0.952275122307180   0.111010964860965   1.0000000
B2   B   0.475960627836396   0.094421535401017   0.111026840571128   1.0000000
B2   B   0.475877514511535   0.236083917966976   0.111053848748128   1.0000000
B2   B   0.475068317392351   0.375839420609246   0.111024636770064   1.0000000
B2   B   0.473845542191317   0.808979135870445   0.111009708726437   1.0000000
B2   B   0.618503906170785   0.952105683857676   0.111032320715932   1.0000000
B2   B   0.618864494883856   0.094810291059841   0.111013735028599   1.0000000
B2   B   0.619128691484540   0.237287259608491   0.111017598528025   1.0000000
B2   B   0.619810539544507   0.379799178284543   0.111033808474137   1.0000000
B2   B   0.623861229384000   0.524528567566943   0.111025432262769   1.0000000
B2   B   0.624734467094823   0.669911370925029   0.111036873861232   1.0000000
B2   B   0.619222969162354   0.809450665087318   0.110984117675476   1.0000000
B2   B   0.762003912935274   0.952641789961456   0.111011756561335   1.0000000
B2   B   0.761599702332881   0.095009493296124   0.111062022508730   1.0000000
B2   B   0.761831000032139   0.237748451795684   0.111046381552952   1.0000000
B2   B   0.762335532774519   0.380567780256857   0.111016006040975   1.0000000
B2   B   0.763667388993711   0.523829094313701   0.111053485406388   1.0000000
B2   B   0.764525898050889   0.667382875664086   0.111039871438630   1.0000000
B2   B   0.763753650577131   0.810833797165753   0.110996650553586   1.0000000
N2   N   0.952790788923158   0.904980272638738   0.111004058492985   1.0000000
N2   N   0.952574406184092   0.047808372797251   0.110998187554027   1.0000000
N2   N   0.952074898503308   0.190282744446545   0.111017494554986   1.0000000
N2   N   0.951717588073797   0.332904159391270   0.111001040236712   1.0000000
N2   N   0.951823474830589   0.475826656618990   0.110970435481350   1.0000000
N2   N   0.952433105294244   0.618913043500132   0.111024203815339   1.0000000
N2   N   0.952808394881718   0.761997813103545   0.111029911996408   1.0000000
N2   N   0.095262918271356   0.904809295148196   0.110972651405992   1.0000000
N2   N   0.095202571005365   0.047541317062540   0.111005643420431   1.0000000
N2   N   0.094902559925523   0.190210421649540   0.110984580655856   1.0000000
N2   N   0.094165016447711   0.332716884909732   0.110995627628517   1.0000000
N2   N   0.093493006744450   0.475569184356951   0.111009003646855   1.0000000
N2   N   0.094150782591498   0.618836301061242   0.111010297723908   1.0000000
N2   N   0.094978709290861   0.761947013049157   0.110982303550232   1.0000000
N2   N   0.237835084959870   0.904823387496673   0.110989236564503   1.0000000
N2   N   0.237936025411617   0.047428709161751   0.111032995054869   1.0000000
N2   N   0.237760789573425   0.190051641601081   0.111017939653429   1.0000000
N2   N   0.237047526896433   0.332637953508226   0.110975929876732   1.0000000
N2   N   0.234863348591815   0.474985458201228   0.111024338271068   1.0000000
N2   N   0.235578904077153   0.618730940928363   0.111062733641238   1.0000000
N2   N   0.237149589040117   0.761999677606767   0.111028241527010   1.0000000
N2   N   0.380522529590163   0.905053704224425   0.111011934015711   1.0000000
N2   N   0.380796155919430   0.047476169878477   0.111036709882262   1.0000000
N2   N   0.380764244429980   0.189872864590765   0.111047085636327   1.0000000
N2   N   0.380567768681520   0.332387494852367   0.110988518178955   1.0000000
N2   N   0.374880635881378   0.473856092040712   0.111062839766275   1.0000000
N2   N   0.377188585561098   0.619165198910825   0.111051477327928   1.0000000
N2   N   0.379148816881155   0.762124530815067   0.111042664729561   1.0000000
N2   N   0.523485580052455   0.905591885654161   0.111003928218392   1.0000000
N2   N   0.523746602199725   0.047678466389048   0.110980311190690   1.0000000
N2   N   0.523838836257941   0.189754327396118   0.111018424008593   1.0000000
N2   N   0.524139486515427   0.331519802629236   0.111021885424471   1.0000000
N2   N   0.526868593836840   0.471384235911052   0.111033115433978   1.0000000
N2   N   0.531344127822099   0.627191927651035   0.111086918305098   1.0000000
N2   N   0.527517522147311   0.770880377378566   0.110914618176643   1.0000000
N2   N   0.667368584283374   0.905615550120213   0.111002967643736   1.0000000
N2   N   0.666604391565958   0.047672658383230   0.111026040946358   1.0000000
N2   N   0.666663474020549   0.190212330267575   0.111014548535054   1.0000000
N2   N   0.666918722656289   0.332712155452992   0.111009649325874   1.0000000
N2   N   0.668043409136121   0.475289601734929   0.111014180878943   1.0000000
N2   N   0.669291611054088   0.619001234256836   0.110997348170934   1.0000000
N2   N   0.669406434248021   0.763453157527407   0.110963332638782   1.0000000
N2   N   0.810507994610745   0.905544126358333   0.110987817226137   1.0000000
N2   N   0.809648313126694   0.047832132902904   0.111028909667944   1.0000000
N2   N   0.809324658297434   0.190292237220927   0.111037682200120   1.0000000
N2   N   0.809391163510648   0.332985075984167   0.111008582220355   1.0000000
N2   N   0.809941779094894   0.475792947555784   0.111009189925683   1.0000000
N2   N   0.810672196918807   0.618873011267187   0.111050933011122   1.0000000
N2   N   0.810728924262830   0.762230042855966   0.111026000873317   1.0000000
S2   S   0.479094526994430   0.529536947874083   0.111019266219856   1.0000000


