data_1
_audit_creation_method   'vasp2cif'
_cell_length_a    14.93631414619966
_cell_length_b    14.936314146199727
_cell_length_c    13.341276283792837
_cell_angle_alpha    90.0
_cell_angle_beta    90.0
_cell_angle_gamma    119.99999999999984

_symmetry_space_group_name_H-M    'P 1'
loop_
_atom_site_label
_atom_site_type_symbol
_atom_site_fract_x
_atom_site_fract_y
_atom_site_fract_z
_atom_site_occupancy
Ge2   Ge   0.489842986448919   0.411588159891124   0.375000000000000   1.0000000
N2   N   0.111100081174239   0.055537609770366   0.124990392116610   1.0000000
N2   N   0.611128452782937   0.555610540386956   0.124098950757961   1.0000000
N2   N   0.444459426141169   0.055547617063760   0.125027990853911   1.0000000
N2   N   0.944433408994980   0.555552638164227   0.125060733651526   1.0000000
N2   N   0.777795934724359   0.055564634028847   0.125002184582432   1.0000000
N2   N   0.111108948552939   0.722221140943134   0.624983605281722   1.0000000
N2   N   0.444459426141169   0.722245142410745   0.624972009146089   1.0000000
N2   N   0.277739653677146   0.222189357115591   0.625210292447443   1.0000000
N2   N   0.777772662428297   0.722225939150491   0.624991598170513   1.0000000
N2   N   0.611118316347165   0.222200620423070   0.625083701053083   1.0000000
N2   N   0.944450171276094   0.222228633313633   0.624998020464684   1.0000000
N2   N   0.277787593821042   0.722232396057608   0.125014288614396   1.0000000
N2   N   0.111100871965800   0.222217102649564   0.124986690030195   1.0000000
N2   N   0.444453042444191   0.222205256973290   0.124755571899870   1.0000000
N2   N   0.611118316347165   0.722251029257424   0.124916298946917   1.0000000
N2   N   0.944433408994980   0.722214104164090   0.125060733651526   1.0000000
N2   N   0.777789503234453   0.222222212436986   0.125037280900724   1.0000000
N2   N   0.111108431258448   0.888879855286873   0.624998579836531   1.0000000
N2   N   0.444463474981676   0.888898404157502   0.624984161462404   1.0000000
N2   N   0.277739653677146   0.388883629894883   0.625210292447443   1.0000000
N2   N   0.611128452782937   0.388851245729308   0.625901049242040   1.0000000
N2   N   0.777789503234453   0.888900624130797   0.624962719099277   1.0000000
N2   N   0.944442514513322   0.388894398034658   0.624962728155899   1.0000000
N2   N   0.111100081174239   0.388895804737202   0.124990392116610   1.0000000
N2   N   0.277787593821042   0.888888531096762   0.125014288614396   1.0000000
N2   N   0.611130721005750   0.888909703383052   0.125021018933269   1.0000000
N2   N   0.444337102959008   0.388835218146169   0.124165615233216   1.0000000
N2   N   0.944442514513322   0.888881449811993   0.125037271844101   1.0000000
N2   N   0.777772662428297   0.388880056611133   0.125008401829488   1.0000000
N2   N   0.277781152635185   0.555569426645482   0.625006329175325   1.0000000
N2   N   0.111100081174239   0.055537609770366   0.625009607883392   1.0000000
N2   N   0.611128452782937   0.555610540386956   0.625901049242040   1.0000000
N2   N   0.444459426141169   0.055547617063760   0.624972009146089   1.0000000
N2   N   0.944433408994980   0.555552638164227   0.624939266348475   1.0000000
N2   N   0.111108431258448   0.555561909304903   0.125001420163468   1.0000000
N2   N   0.777795934724359   0.055564634028847   0.624997815417568   1.0000000
N2   N   0.277781152635185   0.055545059323038   0.124993670824674   1.0000000
N2   N   0.444453042444191   0.555581118804238   0.124755571899870   1.0000000
N2   N   0.777757343041725   0.555545338187530   0.124966586132257   1.0000000
N2   N   0.611130721005750   0.055554350956028   0.125021018933269   1.0000000
N2   N   0.444453042444191   0.555581118804238   0.625244428100129   1.0000000
N2   N   0.944450171276094   0.055554871295797   0.125001979535315   1.0000000
N2   N   0.277787593821042   0.722232396057608   0.624985711385605   1.0000000
N2   N   0.111100871965800   0.222217102649564   0.625013309969805   1.0000000
N2   N   0.444453042444191   0.222205256973290   0.625244428100129   1.0000000
N2   N   0.611118316347165   0.722251029257424   0.625083701053083   1.0000000
N2   N   0.944433408994980   0.722214104164090   0.624939266348475   1.0000000
N2   N   0.777789503234453   0.222222212436986   0.624962719099277   1.0000000
N2   N   0.111108948552939   0.722221140943134   0.125016394718278   1.0000000
N2   N   0.444459426141169   0.722245142410745   0.125027990853911   1.0000000
N2   N   0.277739653677146   0.222189357115591   0.124789707552558   1.0000000
N2   N   0.777772662428297   0.722225939150491   0.125008401829488   1.0000000
N2   N   0.611118316347165   0.222200620423070   0.124916298946917   1.0000000
N2   N   0.944450171276094   0.222228633313633   0.125001979535315   1.0000000
N2   N   0.111100081174239   0.388895804737202   0.625009607883392   1.0000000
N2   N   0.277787593821042   0.888888531096762   0.624985711385605   1.0000000
N2   N   0.611130721005750   0.888909703383052   0.624978981066731   1.0000000
N2   N   0.444337102959008   0.388835218146169   0.625834384766784   1.0000000
N2   N   0.944442514513322   0.888881449811993   0.624962728155899   1.0000000
N2   N   0.111108431258448   0.888879855286873   0.125001420163468   1.0000000
N2   N   0.777772662428297   0.388880056611133   0.624991598170513   1.0000000
N2   N   0.444463474981676   0.888898404157502   0.125015838537596   1.0000000
N2   N   0.277739653677146   0.388883629894883   0.124789707552558   1.0000000
N2   N   0.277781152635185   0.555569426645482   0.124993670824674   1.0000000
N2   N   0.611128452782937   0.388851245729308   0.124098950757961   1.0000000
N2   N   0.777789503234453   0.888900624130797   0.125037280900724   1.0000000
N2   N   0.944442514513322   0.388894398034658   0.125037271844101   1.0000000
N2   N   0.111108431258448   0.555561909304903   0.624998579836531   1.0000000
N2   N   0.277781152635185   0.055545059323038   0.625006329175325   1.0000000
N2   N   0.777757343041725   0.555545338187530   0.625033413867742   1.0000000
N2   N   0.611130721005750   0.055554350956028   0.624978981066731   1.0000000
N2   N   0.944450171276094   0.055554871295797   0.624998020464684   1.0000000
N2   N   0.057339511916304   0.112222260783308   0.375000000000000   1.0000000
N2   N   0.554392140120189   0.618304852377940   0.375000000000000   1.0000000
N2   N   0.386912871130584   0.105258076432709   0.375000000000000   1.0000000
N2   N   0.884692249150636   0.609012791241989   0.375000000000000   1.0000000
N2   N   0.722876898923501   0.110683690237405   0.375000000000000   1.0000000
N2   N   0.055564960274830   0.777782999941642   0.875000000000000   1.0000000
N2   N   0.388899648064187   0.777784067088326   0.875000000000000   1.0000000
N2   N   0.222229768979155   0.277781551156245   0.875000000000000   1.0000000
N2   N   0.722232346369247   0.777780808720283   0.875000000000000   1.0000000
N2   N   0.555563033633581   0.277781384596622   0.875000000000000   1.0000000
N2   N   0.888899161890216   0.277784733342005   0.875000000000000   1.0000000
N2   N   0.219453021732768   0.776393177533052   0.375000000000000   1.0000000
N2   N   0.057339511916304   0.278450584466332   0.375000000000000   1.0000000
N2   N   0.391139374039993   0.271730780918607   0.375000000000000   1.0000000
N2   N   0.554895098947328   0.780894796789202   0.375000000000000   1.0000000
N2   N   0.887067785525382   0.777228204783390   0.375000000000000   1.0000000
N2   N   0.722297735764082   0.275901369773247   0.375000000000000   1.0000000
N2   N   0.055562007666234   0.944446686259743   0.875000000000000   1.0000000
N2   N   0.388899648064187   0.944448914309197   0.875000000000000   1.0000000
N2   N   0.222227778331139   0.444448785139042   0.875000000000000   1.0000000
N2   N   0.555564723965263   0.444449028649296   0.875000000000000   1.0000000
N2   N   0.722230692589377   0.944447911999960   0.875000000000000   1.0000000
N2   N   0.888901054887763   0.444451220302285   0.875000000000000   1.0000000
N2   N   0.054881858980520   0.444168931732530   0.375000000000000   1.0000000
N2   N   0.219848056789805   0.942101901188488   0.375000000000000   1.0000000
N2   N   0.554958228834405   0.944145781083867   0.375000000000000   1.0000000
N2   N   0.391139374039993   0.452741926454722   0.375000000000000   1.0000000
N2   N   0.889662707656681   0.945470255608022   0.375000000000000   1.0000000
N2   N   0.718429360827537   0.441519439293005   0.375000000000000   1.0000000
N2   N   0.222229581542916   0.611115303466663   0.875000000000000   1.0000000
N2   N   0.055562004062319   0.111113143364097   0.875000000000000   1.0000000
N2   N   0.555563033633581   0.611114982370295   0.875000000000000   1.0000000
N2   N   0.388897611360101   0.111114177216440   0.875000000000000   1.0000000
N2   N   0.888903174339771   0.611118253836557   0.875000000000000   1.0000000
N2   N   0.052542520587949   0.609855746018121   0.375000000000000   1.0000000
N2   N   0.722230692589377   0.111116113922752   0.875000000000000   1.0000000
N2   N   0.222805924948833   0.110582409334350   0.375000000000000   1.0000000
N2   N   0.386912871130584   0.614988128031219   0.375000000000000   1.0000000
N2   N   0.718429360827537   0.610243254867868   0.375000000000000   1.0000000
N2   N   0.554895098947328   0.107333635491461   0.375000000000000   1.0000000
N2   N   0.388897611360101   0.611116767477004   0.875000000000000   1.0000000
N2   N   0.890297766407357   0.111815549870350   0.375000000000000   1.0000000
N2   N   0.222231665961210   0.777782499647273   0.875000000000000   1.0000000
N2   N   0.055562004062319   0.277782194031558   0.875000000000000   1.0000000
N2   N   0.388897985346533   0.277779477107327   0.875000000000000   1.0000000
N2   N   0.555563827624160   0.777782082413390   0.875000000000000   1.0000000
N2   N   0.888901054887763   0.777783167918814   0.875000000000000   1.0000000
N2   N   0.722232346369247   0.277784870982299   0.875000000000000   1.0000000
N2   N   0.052542520587949   0.776020107903163   0.375000000000000   1.0000000
N2   N   0.386932768634246   0.778317312298665   0.375000000000000   1.0000000
N2   N   0.225850539360931   0.279591936347133   0.375000000000000   1.0000000
N2   N   0.722297735764082   0.779729699324171   0.375000000000000   1.0000000
N2   N   0.554392140120189   0.269420621075585   0.375000000000000   1.0000000
N2   N   0.889662707656681   0.277525785381995   0.375000000000000   1.0000000
N2   N   0.055562007666234   0.444448654739818   0.875000000000000   1.0000000
N2   N   0.222229581542916   0.944447611409589   0.875000000000000   1.0000000
N2   N   0.555564063769709   0.944448698551518   0.875000000000000   1.0000000
N2   N   0.388897985346533   0.444451841572541   0.875000000000000   1.0000000
N2   N   0.888899161890216   0.944447761881547   0.875000000000000   1.0000000
N2   N   0.054881858980520   0.944046260581319   0.375000000000000   1.0000000
N2   N   0.722236462656685   0.444453195238432   0.875000000000000   1.0000000
N2   N   0.386932768634246   0.941948789668917   0.375000000000000   1.0000000
N2   N   0.222805924948833   0.445556848947819   0.375000000000000   1.0000000
N2   N   0.219848056789805   0.611079488934653   0.375000000000000   1.0000000
N2   N   0.722876898923501   0.945526542019430   0.375000000000000   1.0000000
N2   N   0.887067785525382   0.443172914075327   0.375000000000000   1.0000000
N2   N   0.055564960274830   0.611115293666522   0.875000000000000   1.0000000
N2   N   0.222227778331139   0.111112326525432   0.875000000000000   1.0000000
N2   N   0.722236462656685   0.611116600751589   0.875000000000000   1.0000000
N2   N   0.555563827624160   0.111115078544105   0.875000000000000   1.0000000
N2   N   0.888898228134463   0.111115780733903   0.875000000000000   1.0000000
B2   B   0.111809076843394   0.055636586036354   0.375000000000000   1.0000000
B2   B   0.608933535453459   0.564410568057286   0.375000000000000   1.0000000
B2   B   0.443467999509131   0.051865856076697   0.375000000000000   1.0000000
B2   B   0.941436249081488   0.554199735394526   0.375000000000000   1.0000000
B2   B   0.779159942440738   0.056246637887037   0.375000000000000   1.0000000
B2   B   0.111123475144863   0.722228404239095   0.875000000000000   1.0000000
B2   B   0.444448128436772   0.722217711387283   0.875000000000000   1.0000000
B2   B   0.277790207008124   0.222231799223997   0.875000000000000   1.0000000
B2   B   0.777785435346797   0.722221386876254   0.875000000000000   1.0000000
B2   B   0.611111974120475   0.222230724664207   0.875000000000000   1.0000000
B2   B   0.944460905048304   0.222229506550584   0.875000000000000   1.0000000
B2   B   0.275648868844700   0.721883200854063   0.375000000000000   1.0000000
B2   B   0.114233914620923   0.223783623977126   0.375000000000000   1.0000000
B2   B   0.442650941763603   0.214571051291504   0.375000000000000   1.0000000
B2   B   0.611542410725653   0.727798977887071   0.375000000000000   1.0000000
B2   B   0.941436249081488   0.720569847020298   0.375000000000000   1.0000000
B2   B   0.778759050757402   0.221480715309886   0.375000000000000   1.0000000
B2   B   0.111123160626602   0.888899308691925   0.875000000000000   1.0000000
B2   B   0.444450970244691   0.888892151789010   0.875000000000000   1.0000000
B2   B   0.277790207008124   0.388891741117456   0.875000000000000   1.0000000
B2   B   0.611107452134135   0.388896300035181   0.875000000000000   1.0000000
B2   B   0.777789070106940   0.888892714278259   0.875000000000000   1.0000000
B2   B   0.944458331294075   0.388894088383410   0.875000000000000   1.0000000
B2   B   0.111809076843394   0.389505824140368   0.375000000000000   1.0000000
B2   B   0.275648868844700   0.887099001323967   0.375000000000000   1.0000000
B2   B   0.611597529423078   0.890772117459103   0.375000000000000   1.0000000
B2   B   0.943905342536676   0.888834054446677   0.375000000000000   1.0000000
B2   B   0.776184803595680   0.386900918624855   0.375000000000000   1.0000000
B2   B   0.277786557375723   0.555552608915462   0.875000000000000   1.0000000
B2   B   0.111125111502950   0.055566475374711   0.875000000000000   1.0000000
B2   B   0.611107452134135   0.555544485432281   0.875000000000000   1.0000000
B2   B   0.444448128436772   0.055563750382824   0.875000000000000   1.0000000
B2   B   0.944458677831001   0.555561927039974   0.875000000000000   1.0000000
B2   B   0.108961281992639   0.555070015716866   0.375000000000000   1.0000000
B2   B   0.777790890223945   0.055562111778640   0.875000000000000   1.0000000
B2   B   0.276141486561527   0.052893629432138   0.375000000000000   1.0000000
B2   B   0.442650941763603   0.561413223805434   0.375000000000000   1.0000000
B2   B   0.773252033195413   0.553292683264374   0.375000000000000   1.0000000
B2   B   0.611597529423078   0.054158745297303   0.375000000000000   1.0000000
B2   B   0.444446466325855   0.555547503116227   0.875000000000000   1.0000000
B2   B   0.946181694984141   0.056726632446975   0.375000000000000   1.0000000
B2   B   0.277786669654523   0.722223275382370   0.875000000000000   1.0000000
B2   B   0.111129075623700   0.222231204478514   0.875000000000000   1.0000000
B2   B   0.444446466325855   0.222232296542963   0.875000000000000   1.0000000
B2   B   0.611111974120475   0.722214582789596   0.875000000000000   1.0000000
B2   B   0.944458677831001   0.722230084124362   0.875000000000000   1.0000000
B2   B   0.777789070106940   0.222229689162009   0.875000000000000   1.0000000
B2   B   0.108320263410962   0.720826798372145   0.375000000000000   1.0000000
B2   B   0.443467999509131   0.724935476765769   0.375000000000000   1.0000000
B2   B   0.280978276091389   0.222797537092617   0.375000000000000   1.0000000
B2   B   0.776184803595680   0.722617218304152   0.375000000000000   1.0000000
B2   B   0.611542410725653   0.217076766171911   0.375000000000000   1.0000000
B2   B   0.946181694984141   0.222788395870501   0.375000000000000   1.0000000
B2   B   0.111125111502950   0.388891969461568   0.875000000000000   1.0000000
B2   B   0.277786669654523   0.888896727605482   0.875000000000000   1.0000000
B2   B   0.611117325939262   0.888889651899137   0.875000000000000   1.0000000
B2   B   0.444451688158863   0.388892510746095   0.875000000000000   1.0000000
B2   B   0.944458331294075   0.888897576243993   0.875000000000000   1.0000000
B2   B   0.108961281992639   0.887224599609101   0.375000000000000   1.0000000
B2   B   0.777785435346797   0.388897381803872   0.875000000000000   1.0000000
B2   B   0.443504929776492   0.888419131554911   0.375000000000000   1.0000000
B2   B   0.280978276091389   0.391514072332100   0.375000000000000   1.0000000
B2   B   0.276141486561527   0.556581190462724   0.375000000000000   1.0000000
B2   B   0.608933535453459   0.377856300729502   0.375000000000000   1.0000000
B2   B   0.778759050757402   0.890611668780845   0.375000000000000   1.0000000
B2   B   0.943905342536676   0.388404621423326   0.375000000000000   1.0000000
B2   B   0.111123160626602   0.555557185268005   0.875000000000000   1.0000000
B2   B   0.277786557375723   0.055567281793597   0.875000000000000   1.0000000
B2   B   0.777784105144748   0.555558719239044   0.875000000000000   1.0000000
B2   B   0.611117325939262   0.055561007373454   0.875000000000000   1.0000000
B2   B   0.944460905048304   0.055564731831056   0.875000000000000   1.0000000
B2   B   0.055580333276333   0.111128098973580   0.125006159020091   1.0000000
B2   B   0.555530265743312   0.611107252481783   0.124534718158970   1.0000000
B2   B   0.388887227140603   0.111113227583890   0.124987992899193   1.0000000
B2   B   0.888874747317572   0.611104040325458   0.124998638389640   1.0000000
B2   B   0.722236923037511   0.111108010823669   0.124997170746182   1.0000000
B2   B   0.055567441754861   0.777787637990408   0.624998491364651   1.0000000
B2   B   0.388897992618806   0.777784138564361   0.624995639774648   1.0000000
B2   B   0.222232699029666   0.277783016181500   0.625038287369263   1.0000000
B2   B   0.722216198154056   0.777796645946659   0.625066031408391   1.0000000
B2   B   0.555530265743312   0.277756346594865   0.625465281841030   1.0000000
B2   B   0.888909146967166   0.277778361319614   0.624995678493639   1.0000000
B2   B   0.222236323544079   0.777784828438707   0.124997920312715   1.0000000
B2   B   0.055580333276333   0.277785567636088   0.125006159020091   1.0000000
B2   B   0.388813880982148   0.277712437622753   0.124717379393451   1.0000000
B2   B   0.555554794156560   0.777796058056459   0.124980476055639   1.0000000
B2   B   0.888892141754959   0.777789195930110   0.125000535660255   1.0000000
B2   B   0.722216198154056   0.277752885540732   0.124933968591608   1.0000000
B2   B   0.055572313047982   0.944460432191751   0.624994882153285   1.0000000
B2   B   0.388897992618806   0.944447187387780   0.624995639774648   1.0000000
B2   B   0.222226213043161   0.444438483055329   0.625000465003700   1.0000000
B2   B   0.555529437152946   0.444431385243138   0.625225372526445   1.0000000
B2   B   0.722236923037511   0.944462245547177   0.625002829253818   1.0000000
B2   B   0.888892141754959   0.444436279158185   0.624999464339745   1.0000000
B2   B   0.055572313047982   0.444445214189560   0.125005117846715   1.0000000
B2   B   0.222236992003165   0.944460370137977   0.125003070968573   1.0000000
B2   B   0.555567055960776   0.944450194647053   0.125000690782871   1.0000000
B2   B   0.388813880982148   0.444434776692731   0.124717379393451   1.0000000
B2   B   0.888909146967166   0.944464118980888   0.125004321506361   1.0000000
B2   B   0.722169546232911   0.444406588626075   0.124599349193051   1.0000000
B2   B   0.222236992003165   0.611109955198524   0.624996929031427   1.0000000
B2   B   0.055580333276333   0.111128098973580   0.624993840979908   1.0000000
B2   B   0.555530265743312   0.611107252481783   0.625465281841030   1.0000000
B2   B   0.388887227140603   0.111113227583890   0.625012007100806   1.0000000
B2   B   0.888874747317572   0.611104040325458   0.625001361610359   1.0000000
B2   B   0.055567441754861   0.611113137097788   0.125001508635349   1.0000000
B2   B   0.722236923037511   0.111108010823669   0.625002829253818   1.0000000
B2   B   0.222226213043161   0.111121063321168   0.124999534996299   1.0000000
B2   B   0.388887227140603   0.611107332890055   0.124987992899193   1.0000000
B2   B   0.722169546232911   0.611096290940172   0.124599349193051   1.0000000
B2   B   0.555554794156560   0.111092069433436   0.124980476055639   1.0000000
B2   B   0.388887227140603   0.611107332890055   0.625012007100806   1.0000000
B2   B   0.888914555153095   0.111123944243219   0.124998069146613   1.0000000
B2   B   0.222236323544079   0.777784828438707   0.625002079687285   1.0000000
B2   B   0.055580333276333   0.277785567636088   0.624993840979908   1.0000000
B2   B   0.388813880982148   0.277712437622753   0.625282620606550   1.0000000
B2   B   0.555554794156560   0.777796058056459   0.625019523944361   1.0000000
B2   B   0.888892141754959   0.777789195930110   0.624999464339745   1.0000000
B2   B   0.722216198154056   0.277752885540732   0.625066031408391   1.0000000
B2   B   0.055567441754861   0.777787637990408   0.125001508635349   1.0000000
B2   B   0.388897992618806   0.777784138564361   0.125004360225351   1.0000000
B2   B   0.222232699029666   0.277783016181500   0.124961712630737   1.0000000
B2   B   0.722216198154056   0.777796645946659   0.124933968591608   1.0000000
B2   B   0.555530265743312   0.277756346594865   0.124534718158970   1.0000000
B2   B   0.888909146967166   0.277778361319614   0.125004321506361   1.0000000
B2   B   0.055572313047982   0.444445214189560   0.624994882153285   1.0000000
B2   B   0.222236992003165   0.944460370137977   0.624996929031427   1.0000000
B2   B   0.555567055960776   0.944450194647053   0.624999309217129   1.0000000
B2   B   0.388813880982148   0.444434776692731   0.625282620606550   1.0000000
B2   B   0.888909146967166   0.944464118980888   0.624995678493639   1.0000000
B2   B   0.055572313047982   0.944460432191751   0.125005117846715   1.0000000
B2   B   0.722169546232911   0.444406588626075   0.625400650806949   1.0000000
B2   B   0.388897992618806   0.944447187387780   0.125004360225351   1.0000000
B2   B   0.222226213043161   0.444438483055329   0.124999534996299   1.0000000
B2   B   0.222236992003165   0.611109955198524   0.125003070968573   1.0000000
B2   B   0.555529437152946   0.444431385243138   0.124774627473554   1.0000000
B2   B   0.722236923037511   0.944462245547177   0.124997170746182   1.0000000
B2   B   0.888892141754959   0.444436279158185   0.125000535660255   1.0000000
B2   B   0.055567441754861   0.611113137097788   0.624998491364651   1.0000000
B2   B   0.222226213043161   0.111121063321168   0.625000465003700   1.0000000
B2   B   0.722169546232911   0.611096290940172   0.625400650806949   1.0000000
B2   B   0.555554794156560   0.111092069433436   0.625019523944361   1.0000000
B2   B   0.888914555153095   0.111123944243219   0.625001930853387   1.0000000


