data_1
_audit_creation_method   'vasp2cif'
_cell_length_a    17.52789999999977
_cell_length_b    17.52789999999977
_cell_length_c    15.0
_cell_angle_alpha    90.0
_cell_angle_beta    90.0
_cell_angle_gamma    119.99999999999916

_symmetry_space_group_name_H-M    'P 1'
loop_
_atom_site_label
_atom_site_type_symbol
_atom_site_fract_x
_atom_site_fract_y
_atom_site_fract_z
_atom_site_occupancy
B2   B   0.905378556429650   0.952854435047079   0.111015804104124   1.0000000
B2   B   0.904736950760548   0.095265070435449   0.111008021692721   1.0000000
B2   B   0.904496888869035   0.237962791280019   0.111036673489500   1.0000000
B2   B   0.904736950760548   0.380900574016089   0.111008021692721   1.0000000
B2   B   0.905378556429650   0.523954526630567   0.111015804104124   1.0000000
B2   B   0.905729222094158   0.667065668804991   0.111072497339463   1.0000000
B2   B   0.905729222094158   0.810093958537168   0.111072497339463   1.0000000
B2   B   0.047751155616476   0.952250865579528   0.111029105792511   1.0000000
B2   B   0.047147586148925   0.094623464766346   0.111015804104124   1.0000000
B2   B   0.046695216818300   0.237449112295868   0.111004985834577   1.0000000
B2   B   0.046695216818300   0.380676509769433   0.111004985834577   1.0000000
B2   B   0.047147586148925   0.523954526630567   0.111015804104124   1.0000000
B2   B   0.047751155616476   0.666932406840945   0.111029105792511   1.0000000
B2   B   0.047930528916029   0.809681322860020   0.110997404487518   1.0000000
B2   B   0.190320698335983   0.952071492279975   0.110997404487518   1.0000000
B2   B   0.189908062658835   0.094272799101839   0.111072497339463   1.0000000
B2   B   0.188560930365465   0.236145282623964   0.111041884685205   1.0000000
B2   B   0.188228790104756   0.379829597675878   0.111015137376592   1.0000000
B2   B   0.188560930365465   0.523846052989503   0.111041884685205   1.0000000
B2   B   0.189908062658835   0.667065668804991   0.111072497339463   1.0000000
B2   B   0.190320698335983   0.809681322860020   0.110997404487518   1.0000000
B2   B   0.333069614356052   0.952250865579528   0.111029105792511   1.0000000
B2   B   0.332936352392007   0.094272799101839   0.111072497339463   1.0000000
B2   B   0.332084997665757   0.235598379381523   0.111047785193392   1.0000000
B2   B   0.328668257916784   0.374318722774974   0.111027664643976   1.0000000
B2   B   0.328668257916784   0.525779940388810   0.111027664643976   1.0000000
B2   B   0.332084997665757   0.667917023531240   0.111047785193392   1.0000000
B2   B   0.332936352392007   0.810093958537168   0.111072497339463   1.0000000
B2   B   0.476047494566432   0.952854435047079   0.111015804104124   1.0000000
B2   B   0.476047494566432   0.094623464766346   0.111015804104124   1.0000000
B2   B   0.476155968207495   0.236145282623964   0.111041884685205   1.0000000
B2   B   0.474222080808188   0.374318722774974   0.111027664643976   1.0000000
B2   B   0.474222080808188   0.671333763280214   0.111027664643976   1.0000000
B2   B   0.476155968207495   0.811441090830539   0.111041884685205   1.0000000
B2   B   0.619325511426572   0.953306804377704   0.111004985834577   1.0000000
B2   B   0.619101447179907   0.095265070435449   0.111008021692721   1.0000000
B2   B   0.619325511426572   0.237449112295868   0.111004985834577   1.0000000
B2   B   0.620172423520126   0.379829597675878   0.111015137376592   1.0000000
B2   B   0.625683298421030   0.525779940388810   0.111027664643976   1.0000000
B2   B   0.625683298421030   0.671333763280214   0.111027664643976   1.0000000
B2   B   0.620172423520126   0.811773231091247   0.111015137376592   1.0000000
B2   B   0.762552908900136   0.953306804377704   0.111004985834577   1.0000000
B2   B   0.762039229915984   0.095505132326962   0.111036673489500   1.0000000
B2   B   0.762039229915984   0.237962791280019   0.111036673489500   1.0000000
B2   B   0.762552908900136   0.380676509769433   0.111004985834577   1.0000000
B2   B   0.763856738572040   0.523846052989503   0.111041884685205   1.0000000
B2   B   0.764403641814480   0.667917023531240   0.111047785193392   1.0000000
B2   B   0.763856738572040   0.811441090830539   0.111041884685205   1.0000000
N2   N   0.952661672344583   0.904951086952898   0.111031427375199   1.0000000
N2   N   0.952355578759741   0.047645823158265   0.110979969243154   1.0000000
N2   N   0.952030840461541   0.190306705635975   0.111004659170687   1.0000000
N2   N   0.952030840461541   0.333151116943564   0.111004659170687   1.0000000
N2   N   0.952355578759741   0.476136737719481   0.110979969243154   1.0000000
N2   N   0.952661672344583   0.619139279066681   0.111031427375199   1.0000000
N2   N   0.952716929527391   0.762072811601197   0.111043144901483   1.0000000
N2   N   0.095281053745099   0.904720348172900   0.110974480677900   1.0000000
N2   N   0.095050314965100   0.047339729573422   0.111031427375199   1.0000000
N2   N   0.094296936062099   0.189725496887872   0.111003604816679   1.0000000
N2   N   0.094159198969747   0.332793946321874   0.110984967516326   1.0000000
N2   N   0.094296936062099   0.476000132848229   0.111003604816679   1.0000000
N2   N   0.095050314965100   0.619139279066681   0.111031427375199   1.0000000
N2   N   0.095281053745099   0.761991110803198   0.110974480677900   1.0000000
N2   N   0.238010291114808   0.904720348172900   0.110974480677900   1.0000000
N2   N   0.237928590316808   0.047284472390614   0.111043144901483   1.0000000
N2   N   0.237483609490424   0.189733628226830   0.111046759990529   1.0000000
N2   N   0.235686792745908   0.331611546025651   0.111010199733235   1.0000000
N2   N   0.235686792745908   0.475503940394251   0.111010199733235   1.0000000
N2   N   0.237483609490424   0.619178674938589   0.111046759990529   1.0000000
N2   N   0.237928590316808   0.762072811601197   0.111043144901483   1.0000000
N2   N   0.380862122851318   0.904951086952898   0.111031427375199   1.0000000
N2   N   0.380862122851318   0.047339729573422   0.111031427375199   1.0000000
N2   N   0.380822726979409   0.189733628226830   0.111046759990529   1.0000000
N2   N   0.380270337092297   0.331967965941598   0.111008770079219   1.0000000
N2   N   0.373622336639365   0.472525515156683   0.111000407024706   1.0000000
N2   N   0.380270337092297   0.619731064825701   0.111008770079219   1.0000000
N2   N   0.380822726979409   0.762517792427581   0.111046759990529   1.0000000
N2   N   0.524001269068769   0.905704465855899   0.111003604816679   1.0000000
N2   N   0.523864664197516   0.047645823158265   0.110979969243154   1.0000000
N2   N   0.524001269068769   0.189725496887872   0.111003604816679   1.0000000
N2   N   0.524497461522746   0.331611546025651   0.111010199733235   1.0000000
N2   N   0.527475886760313   0.472525515156683   0.111000407024706   1.0000000
N2   N   0.527475886760313   0.626379065278634   0.111000407024706   1.0000000
N2   N   0.524497461522746   0.764314609172098   0.111010199733235   1.0000000
N2   N   0.667207455595123   0.905842202948252   0.110984967516326   1.0000000
N2   N   0.666850284973432   0.047970561456465   0.111004659170687   1.0000000
N2   N   0.666850284973432   0.190306705635975   0.111004659170687   1.0000000
N2   N   0.667207455595123   0.332793946321874   0.110984967516326   1.0000000
N2   N   0.668389855891346   0.475503940394251   0.111010199733235   1.0000000
N2   N   0.668033435975399   0.619731064825701   0.111008770079219   1.0000000
N2   N   0.668389855891346   0.764314609172098   0.111010199733235   1.0000000
N2   N   0.810275905030128   0.905704465855899   0.111003604816679   1.0000000
N2   N   0.809694696282024   0.047970561456465   0.111004659170687   1.0000000
N2   N   0.809525273905997   0.190476128012001   0.111031760369301   1.0000000
N2   N   0.809694696282024   0.333151116943564   0.111004659170687   1.0000000
N2   N   0.810275905030128   0.476000132848229   0.111003604816679   1.0000000
N2   N   0.810267773691168   0.619178674938589   0.111046759990529   1.0000000
N2   N   0.810267773691168   0.762517792427581   0.111046759990529   1.0000000
S2   S   0.476191212381998   0.523810808815000   0.110993711043645   1.0000000


