data_1
_audit_creation_method   'vasp2cif'
_cell_length_a    14.93631414619966
_cell_length_b    14.936314146199727
_cell_length_c    13.341276283792837
_cell_angle_alpha    90.0
_cell_angle_beta    90.0
_cell_angle_gamma    119.99999999999984

_symmetry_space_group_name_H-M    'P 1'
loop_
_atom_site_label
_atom_site_type_symbol
_atom_site_fract_x
_atom_site_fract_y
_atom_site_fract_z
_atom_site_occupancy
O2   O   0.567272547483502   0.450302940408415   0.375000000000000   1.0000000
N2   N   0.110869780010701   0.055451759567929   0.122376074005713   1.0000000
N2   N   0.610883317221198   0.555423273242314   0.123259549026432   1.0000000
N2   N   0.444234934787427   0.055455896713693   0.122364815686174   1.0000000
N2   N   0.944228423269767   0.555442578108397   0.123047352349943   1.0000000
N2   N   0.777530595642594   0.055431964487990   0.123077118288132   1.0000000
N2   N   0.110906306914277   0.722119820124129   0.626713334272144   1.0000000
N2   N   0.444234934787427   0.722112371406747   0.627635184314013   1.0000000
N2   N   0.277523395505788   0.222106760475060   0.628053682969674   1.0000000
N2   N   0.777547007918198   0.722107787556251   0.627275860014794   1.0000000
N2   N   0.610885133567401   0.222106038247531   0.627478392806895   1.0000000
N2   N   0.944187769121835   0.222087294028974   0.627077470391244   1.0000000
N2   N   0.277571695108290   0.722109621053500   0.122822906494012   1.0000000
N2   N   0.110847218718049   0.222090276025706   0.122112266701000   1.0000000
N2   N   0.444239569023656   0.222120560532711   0.122447731678564   1.0000000
N2   N   0.610885133567401   0.722112428652665   0.122521607192839   1.0000000
N2   N   0.944228423269767   0.722119178494452   0.123047352349943   1.0000000
N2   N   0.777539765857111   0.222093399526470   0.122805248090324   1.0000000
N2   N   0.110896435837005   0.888797973301709   0.627047146285120   1.0000000
N2   N   0.444229844380160   0.888781588856138   0.627560675612856   1.0000000
N2   N   0.277523395505789   0.388749968364382   0.628053682969674   1.0000000
N2   N   0.610883317221198   0.388793377311989   0.626740450973537   1.0000000
N2   N   0.777539765857115   0.888779699663845   0.627194751909576   1.0000000
N2   N   0.944213139732483   0.388759964756071   0.627154084315586   1.0000000
N2   N   0.110869780010701   0.388751353776284   0.122376074005713   1.0000000
N2   N   0.277571695108290   0.888795407388649   0.122822906494012   1.0000000
N2   N   0.610883070076129   0.888781505365405   0.122518330838794   1.0000000
N2   N   0.444249584369743   0.388791458851715   0.121765465680831   1.0000000
N2   N   0.944213139732483   0.888786508310242   0.122845915684356   1.0000000
N2   N   0.777547007918198   0.388772553694930   0.122724139985035   1.0000000
N2   N   0.277561592665128   0.555430082030493   0.627658950359463   1.0000000
N2   N   0.110869780010701   0.055451759567929   0.627623925994374   1.0000000
N2   N   0.610883317221198   0.555423273242314   0.626740450973537   1.0000000
N2   N   0.444234934787427   0.055455896713699   0.627635184314013   1.0000000
N2   N   0.944228423269767   0.555442578108397   0.626952647649693   1.0000000
N2   N   0.110896435837005   0.555431795867824   0.122952853714107   1.0000000
N2   N   0.777530595642594   0.055431964487989   0.626922881711755   1.0000000
N2   N   0.277561592665128   0.055464843967336   0.122341049640526   1.0000000
N2   N   0.444239569023749   0.555452341824415   0.122447731678600   1.0000000
N2   N   0.777551420630526   0.555442376981623   0.122938435866636   1.0000000
N2   N   0.610883070076129   0.055434898044473   0.122518330838789   1.0000000
N2   N   0.444239569023749   0.555452341824415   0.627552268321947   1.0000000
N2   N   0.944187769121835   0.055433808426126   0.122922529608789   1.0000000
N2   N   0.277571695108290   0.722109621053500   0.627177093505642   1.0000000
N2   N   0.110847218718049   0.222090276025706   0.627887733298703   1.0000000
N2   N   0.444239569023656   0.222120560532711   0.627552268321947   1.0000000
N2   N   0.610885133567401   0.722112428652665   0.627478392806894   1.0000000
N2   N   0.944228423269767   0.722119178494452   0.626952647649693   1.0000000
N2   N   0.777539765857111   0.222093399526470   0.627194751909576   1.0000000
N2   N   0.110906306914277   0.722119820124129   0.123286665727755   1.0000000
N2   N   0.444234934787427   0.722112371406344   0.122364815686175   1.0000000
N2   N   0.277523395505788   0.222106760475060   0.121946317030222   1.0000000
N2   N   0.777547007918198   0.722107787556251   0.122724139985034   1.0000000
N2   N   0.610885133567401   0.222106038247531   0.122521607192839   1.0000000
N2   N   0.944187769121835   0.222087294028974   0.122922529608789   1.0000000
N2   N   0.110869780010701   0.388751353776284   0.627623925994374   1.0000000
N2   N   0.277571695108290   0.888795407388653   0.627177093505642   1.0000000
N2   N   0.610883070076129   0.888781505365405   0.627481669161101   1.0000000
N2   N   0.444249584369744   0.388791458851715   0.628234534319052   1.0000000
N2   N   0.944213139732483   0.888786508310242   0.627154084315586   1.0000000
N2   N   0.110896435837005   0.888797973301709   0.122952853714107   1.0000000
N2   N   0.777547007918198   0.388772553694930   0.627275860014796   1.0000000
N2   N   0.444229844380160   0.888781588856138   0.122439324387129   1.0000000
N2   N   0.277523395505788   0.388749968364382   0.121946317030222   1.0000000
N2   N   0.277561592665128   0.555430082030493   0.122341049640526   1.0000000
N2   N   0.610883317221198   0.388793377311989   0.123259549026435   1.0000000
N2   N   0.777539765857111   0.888779699663845   0.122805248090324   1.0000000
N2   N   0.944213139732483   0.388759964756071   0.122845915684357   1.0000000
N2   N   0.110896435837005   0.555431795867824   0.627047146285120   1.0000000
N2   N   0.277561592665128   0.055464843967337   0.627658950359463   1.0000000
N2   N   0.777551420630526   0.555442376981623   0.627061564132948   1.0000000
N2   N   0.610883070076126   0.055434898044472   0.627481669161101   1.0000000
N2   N   0.944187769121835   0.055433808426127   0.627077470391244   1.0000000
N2   N   0.053678938698486   0.109939333402490   0.375000000000000   1.0000000
N2   N   0.556237814108459   0.608295356155813   0.375000000000000   1.0000000
N2   N   0.389053602287015   0.112988086539978   0.375000000000000   1.0000000
N2   N   0.891030368565841   0.612181850949516   0.375000000000000   1.0000000
N2   N   0.721389390320003   0.111001057933719   0.375000000000000   1.0000000
N2   N   0.055949937724766   0.777968973000876   0.875000000000000   1.0000000
N2   N   0.389280295367047   0.777976348004591   0.875000000000000   1.0000000
N2   N   0.222616981034904   0.277975157184058   0.875000000000000   1.0000000
N2   N   0.722624943374243   0.777974696717964   0.875000000000000   1.0000000
N2   N   0.555957946547040   0.277986472630303   0.875000000000000   1.0000000
N2   N   0.889288773942546   0.277983549562733   0.875000000000000   1.0000000
N2   N   0.222987808869000   0.778160571101182   0.375000000000000   1.0000000
N2   N   0.053678938698486   0.277072938629094   0.375000000000000   1.0000000
N2   N   0.384210949308232   0.275922747441949   0.375000000000000   1.0000000
N2   N   0.555397238448979   0.776313615238758   0.375000000000000   1.0000000
N2   N   0.889959709704316   0.778311110706125   0.375000000000000   1.0000000
N2   N   0.722063967614296   0.278414965861281   0.375000000000000   1.0000000
N2   N   0.055947622334468   0.944632224289073   0.875000000000000   1.0000000
N2   N   0.389280295367044   0.944637280695166   0.875000000000000   1.0000000
N2   N   0.222613979208507   0.444645283935618   0.875000000000000   1.0000000
N2   N   0.555966829216903   0.444650081275118   0.875000000000000   1.0000000
N2   N   0.722617180980785   0.944640456341101   0.875000000000000   1.0000000
N2   N   0.889288955783607   0.444650110093195   0.875000000000000   1.0000000
N2   N   0.055302050774083   0.444441148682611   0.375000000000000   1.0000000
N2   N   0.222665637512960   0.944987949844987   0.375000000000000   1.0000000
N2   N   0.555262427549399   0.944297880441492   0.375000000000000   1.0000000
N2   N   0.384210949308227   0.441621535199558   0.375000000000000   1.0000000
N2   N   0.888012486914647   0.943711765143234   0.375000000000000   1.0000000
N2   N   0.725261102642007   0.445986026359507   0.375000000000000   1.0000000
N2   N   0.222609913509213   0.611311576852098   0.875000000000000   1.0000000
N2   N   0.055951747471575   0.111305436453346   0.875000000000000   1.0000000
N2   N   0.555957946547040   0.611304807250460   0.875000000000000   1.0000000
N2   N   0.389283817635988   0.111309859717442   0.875000000000000   1.0000000
N2   N   0.889292856977293   0.611313095155560   0.875000000000000   1.0000000
N2   N   0.056671226120531   0.611605466701998   0.375000000000000   1.0000000
N2   N   0.722617180980785   0.111310057973696   0.875000000000000   1.0000000
N2   N   0.220569725907466   0.110246085812995   0.375000000000000   1.0000000
N2   N   0.389053602287011   0.609398849079970   0.375000000000000   1.0000000
N2   N   0.725261102642007   0.612608409615575   0.375000000000000   1.0000000
N2   N   0.555397238448979   0.112416956543250   0.375000000000000   1.0000000
N2   N   0.389283817635988   0.611307291251772   0.875000000000000   1.0000000
N2   N   0.887521696713110   0.110427515023213   0.375000000000000   1.0000000
N2   N   0.222612072830231   0.777972703081436   0.875000000000000   1.0000000
N2   N   0.055951747471575   0.277979644351611   0.875000000000000   1.0000000
N2   N   0.389286626313883   0.277977562370733   0.875000000000000   1.0000000
N2   N   0.555954055533049   0.777976972639242   0.875000000000000   1.0000000
N2   N   0.889288955783607   0.777972179024235   0.875000000000000   1.0000000
N2   N   0.722624943374243   0.277983579989356   0.875000000000000   1.0000000
N2   N   0.056671226120531   0.778399092751425   0.375000000000000   1.0000000
N2   N   0.389184401287134   0.777333882936123   0.375000000000000   1.0000000
N2   N   0.218536104504536   0.275934718918612   0.375000000000000   1.0000000
N2   N   0.722063967614296   0.776982335086426   0.375000000000000   1.0000000
N2   N   0.556237814108459   0.281275791286441   0.375000000000000   1.0000000
N2   N   0.888012486914647   0.277634055104441   0.375000000000000   1.0000000
N2   N   0.055947622334468   0.444648731378987   0.875000000000000   1.0000000
N2   N   0.222609913509213   0.944631669990210   0.875000000000000   1.0000000
N2   N   0.555955039717515   0.944644186525647   0.875000000000000   1.0000000
N2   N   0.389286626313883   0.444642397276683   0.875000000000000   1.0000000
N2   N   0.889288773942546   0.944638557714052   0.875000000000000   1.0000000
N2   N   0.055302050774082   0.944194235425327   0.375000000000000   1.0000000
N2   N   0.722626764765279   0.444651849775770   0.875000000000000   1.0000000
N2   N   0.389184401287134   0.945183851683817   0.375000000000000   1.0000000
N2   N   0.220569725907466   0.443656973427164   0.375000000000000   1.0000000
N2   N   0.222665637512960   0.611011021000923   0.375000000000000   1.0000000
N2   N   0.721389390320003   0.943721665719365   0.375000000000000   1.0000000
N2   N   0.889959709704316   0.444981932331791   0.375000000000000   1.0000000
N2   N   0.055949937724785   0.611314298057064   0.875000000000000   1.0000000
N2   N   0.222613979208507   0.111302028605924   0.875000000000000   1.0000000
N2   N   0.722626764765279   0.611308248322136   0.875000000000000   1.0000000
N2   N   0.555954055533049   0.111310416227520   0.875000000000000   1.0000000
N2   N   0.889283749238205   0.111308541285462   0.875000000000000   1.0000000
B2   B   0.110536716776294   0.055456943574764   0.375000000000000   1.0000000
B2   B   0.614170581695863   0.555109533593513   0.375000000000000   1.0000000
B2   B   0.443991664929694   0.057233433409013   0.375000000000000   1.0000000
B2   B   0.945867305348156   0.556102887494975   0.375000000000000   1.0000000
B2   B   0.776640958178762   0.054987145756104   0.375000000000000   1.0000000
B2   B   0.111505166444358   0.722419249889167   0.875000000000000   1.0000000
B2   B   0.444818221254150   0.722371958908546   0.875000000000000   1.0000000
B2   B   0.278209813511118   0.222457163155110   0.875000000000000   1.0000000
B2   B   0.778159555257845   0.722403714932370   0.875000000000000   1.0000000
B2   B   0.611473767237459   0.222439621014235   0.875000000000000   1.0000000
B2   B   0.944881155993170   0.222439937862016   0.875000000000000   1.0000000
B2   B   0.278191703044243   0.721983097829671   0.375000000000000   1.0000000
B2   B   0.109478942113400   0.221406137723434   0.375000000000000   1.0000000
B2   B   0.443147124780685   0.227358653362447   0.375000000000000   1.0000000
B2   B   0.610351505890309   0.719414832209160   0.375000000000000   1.0000000
B2   B   0.945867305348156   0.723097751187081   0.375000000000000   1.0000000
B2   B   0.776946318078963   0.222270924552721   0.375000000000000   1.0000000
B2   B   0.111520759151099   0.889109629208095   0.875000000000000   1.0000000
B2   B   0.444813488322154   0.889073410827888   0.875000000000000   1.0000000
B2   B   0.278209813511121   0.389085983689219   0.875000000000000   1.0000000
B2   B   0.611457747671940   0.389083641946114   0.875000000000000   1.0000000
B2   B   0.778173669566516   0.889074914437838   0.875000000000000   1.0000000
B2   B   0.944859678616856   0.389093849638288   0.875000000000000   1.0000000
B2   B   0.110536716776294   0.388413106535147   0.375000000000000   1.0000000
B2   B   0.278191703044243   0.889541938547600   0.375000000000000   1.0000000
B2   B   0.610227756734483   0.887638863569146   0.375000000000000   1.0000000
B2   B   0.944645980062694   0.889111447434744   0.375000000000000   1.0000000
B2   B   0.779086905018050   0.389469224560691   0.375000000000000   1.0000000
B2   B   0.278184412919576   0.555726363539407   0.875000000000000   1.0000000
B2   B   0.111551059923905   0.055789237054737   0.875000000000000   1.0000000
B2   B   0.611457747671951   0.555707439059255   0.875000000000000   1.0000000
B2   B   0.444818221254150   0.055779595679442   0.875000000000000   1.0000000
B2   B   0.944839851878436   0.555751311403370   0.875000000000000   1.0000000
B2   B   0.111833303855297   0.555557315068613   0.375000000000000   1.0000000
B2   B   0.778195605249370   0.055764469291268   0.875000000000000   1.0000000
B2   B   0.277991139016917   0.056957402772861   0.375000000000000   1.0000000
B2   B   0.443147124780685   0.549121804751733   0.375000000000000   1.0000000
B2   B   0.780337584923133   0.556835459128660   0.375000000000000   1.0000000
B2   B   0.610227756734483   0.055922226498706   0.375000000000000   1.0000000
B2   B   0.444808425390879   0.555687327151024   0.875000000000000   1.0000000
B2   B   0.943295340069602   0.054876571937157   0.375000000000000   1.0000000
B2   B   0.278172314880275   0.722405842130181   0.875000000000000   1.0000000
B2   B   0.111567292109073   0.222450312721200   0.875000000000000   1.0000000
B2   B   0.444808425390879   0.222454431573055   0.875000000000000   1.0000000
B2   B   0.611473767237459   0.722367479556799   0.875000000000000   1.0000000
B2   B   0.944839851878436   0.722421873808176   0.875000000000000   1.0000000
B2   B   0.778173669566444   0.222432088462049   0.875000000000000   1.0000000
B2   B   0.112119997707004   0.722726665520374   0.375000000000000   1.0000000
B2   B   0.443991664929694   0.720091564853533   0.375000000000000   1.0000000
B2   B   0.277283877186727   0.223238224932604   0.375000000000000   1.0000000
B2   B   0.779086905018050   0.722951013790124   0.375000000000000   1.0000000
B2   B   0.610351505890309   0.224270007014274   0.375000000000000   1.0000000
B2   B   0.943295340069602   0.221752101465598   0.375000000000000   1.0000000
B2   B   0.111551059923905   0.389095156202502   0.875000000000000   1.0000000
B2   B   0.278172314880275   0.889099806083495   0.875000000000000   1.0000000
B2   B   0.611489810092839   0.889062862527742   0.875000000000000   1.0000000
B2   B   0.444807443102687   0.389070388218037   0.875000000000000   1.0000000
B2   B   0.944859678616856   0.889099162311461   0.875000000000000   1.0000000
B2   B   0.111833303855172   0.889609322119173   0.375000000000000   1.0000000
B2   B   0.778159555257845   0.389089173658669   0.875000000000000   1.0000000
B2   B   0.444175808850950   0.888754571092462   0.375000000000000   1.0000000
B2   B   0.277283877186727   0.387378985587236   0.375000000000000   1.0000000
B2   B   0.277991139016917   0.554367069577555   0.375000000000000   1.0000000
B2   B   0.614170581695862   0.392394381436085   0.375000000000000   1.0000000
B2   B   0.776946318078963   0.888008726859107   0.375000000000000   1.0000000
B2   B   0.944645980062694   0.388867865962057   0.375000000000000   1.0000000
B2   B   0.111520759151100   0.555744463276124   0.875000000000000   1.0000000
B2   B   0.278184412919576   0.055791382714113   0.875000000000000   1.0000000
B2   B   0.778148211600331   0.555740772466109   0.875000000000000   1.0000000
B2   B   0.611489810092839   0.055760280898229   0.875000000000000   1.0000000
B2   B   0.944881155993170   0.055774551464287   0.875000000000000   1.0000000
B2   B   0.055419045210074   0.111095769147504   0.122732218098015   1.0000000
B2   B   0.555152960930919   0.610839094325952   0.123160332096204   1.0000000
B2   B   0.388706853715918   0.111194752793701   0.122793955231450   1.0000000
B2   B   0.888623402390297   0.610978367861852   0.123131435248800   1.0000000
B2   B   0.721964704719580   0.110987926342250   0.122965206208568   1.0000000
B2   B   0.055378128965181   0.777730738179718   0.626703566369915   1.0000000
B2   B   0.388707017196506   0.777625125531482   0.627274270784317   1.0000000
B2   B   0.222163739149226   0.277748536241222   0.627409619210539   1.0000000
B2   B   0.721907547676807   0.777611027046453   0.627167083929325   1.0000000
B2   B   0.555152960930919   0.277647199938041   0.626839667903560   1.0000000
B2   B   0.888666249484381   0.277637354011656   0.626957200629761   1.0000000
B2   B   0.222071719100529   0.777702526216883   0.123200053861944   1.0000000
B2   B   0.055419045210074   0.277656609396031   0.122732218098015   1.0000000
B2   B   0.388704493291913   0.277871167339126   0.123533564973576   1.0000000
B2   B   0.555287063736718   0.777584413189771   0.122655538435384   1.0000000
B2   B   0.888631434048658   0.777679162627609   0.123001297951184   1.0000000
B2   B   0.721907547676807   0.277629853963902   0.122832916070787   1.0000000
B2   B   0.055402242961346   0.944462289510692   0.627059044229137   1.0000000
B2   B   0.388707017196635   0.944415224998634   0.627274270784317   1.0000000
B2   B   0.222135405532432   0.444229959437631   0.627354049854968   1.0000000
B2   B   0.554932320516410   0.444132826924869   0.626598329244349   1.0000000
B2   B   0.721964704719580   0.944310111710998   0.627034793791611   1.0000000
B2   B   0.888631434048658   0.444285604754791   0.626998702048929   1.0000000
B2   B   0.055402242961346   0.444273286784216   0.122940955771426   1.0000000
B2   B   0.222089066608615   0.944497700507560   0.122952207010969   1.0000000
B2   B   0.555318906204158   0.944326119768981   0.122628487240991   1.0000000
B2   B   0.388704493291913   0.444166659286184   0.123533564973576   1.0000000
B2   B   0.888666249484383   0.944362228806097   0.123042799370514   1.0000000
B2   B   0.721832656813598   0.444253015738468   0.123146295363115   1.0000000
B2   B   0.222089066608615   0.610924699434615   0.627047792989132   1.0000000
B2   B   0.055419045210075   0.111095769147504   0.627267781902104   1.0000000
B2   B   0.555152960930919   0.610839094325952   0.626839667903546   1.0000000
B2   B   0.388706853715918   0.111194752793701   0.627206044769078   1.0000000
B2   B   0.888623402390297   0.610978367861852   0.626868564751212   1.0000000
B2   B   0.055378128965181   0.610980724117995   0.123296433630619   1.0000000
B2   B   0.721964704719580   0.110987926342251   0.627034793791613   1.0000000
B2   B   0.222135405532432   0.111238779428365   0.122645950145151   1.0000000
B2   B   0.388706853715918   0.610845434256053   0.122793955231449   1.0000000
B2   B   0.721832656813598   0.610912974408133   0.123146295363115   1.0000000
B2   B   0.555287063736711   0.111035983879800   0.122655538435384   1.0000000
B2   B   0.388706853715918   0.610845434256053   0.627206044769074   1.0000000
B2   B   0.888680159948081   0.111006746640620   0.123204126468955   1.0000000
B2   B   0.222071719100529   0.777702526216883   0.626799946138676   1.0000000
B2   B   0.055419045210066   0.277656609396031   0.627267781902104   1.0000000
B2   B   0.388704493291913   0.277871167339126   0.626466435026118   1.0000000
B2   B   0.555287063736718   0.777584413189771   0.627344461564410   1.0000000
B2   B   0.888631434048658   0.777679162627609   0.626998702048929   1.0000000
B2   B   0.721907547676807   0.277629853963902   0.627167083929325   1.0000000
B2   B   0.055378128965181   0.777730738179718   0.123296433630618   1.0000000
B2   B   0.388707017196506   0.777625125531482   0.122725729215803   1.0000000
B2   B   0.222163739149227   0.277748536241222   0.122590380789650   1.0000000
B2   B   0.721907547676807   0.777611027046457   0.122832916070787   1.0000000
B2   B   0.555152960930919   0.277647199938039   0.123160332096204   1.0000000
B2   B   0.888666249484381   0.277637354011656   0.123042799370515   1.0000000
B2   B   0.055402242961346   0.444273286784215   0.627059044229137   1.0000000
B2   B   0.222089066608615   0.944497700507560   0.627047792989132   1.0000000
B2   B   0.555318906204158   0.944326119768981   0.627371512759145   1.0000000
B2   B   0.388704493291913   0.444166659286184   0.626466435026121   1.0000000
B2   B   0.888666249484381   0.944362228806097   0.626957200629761   1.0000000
B2   B   0.055402242961346   0.944462289510692   0.122940955771426   1.0000000
B2   B   0.721832656813598   0.444253015738222   0.626853704636118   1.0000000
B2   B   0.388707017196489   0.944415224998641   0.122725729215803   1.0000000
B2   B   0.222135405532432   0.444229959437631   0.122645950145151   1.0000000
B2   B   0.222089066608615   0.610924699434615   0.122952207010969   1.0000000
B2   B   0.554932320516410   0.444132826924869   0.123401670755644   1.0000000
B2   B   0.721964704719580   0.944310111710998   0.122965206208569   1.0000000
B2   B   0.888631434048658   0.444285604754791   0.123001297951184   1.0000000
B2   B   0.055378128965181   0.610980724117995   0.626703566369915   1.0000000
B2   B   0.222135405532432   0.111238779428366   0.627354049854968   1.0000000
B2   B   0.721832656813598   0.610912974408133   0.626853704636118   1.0000000
B2   B   0.555287063736711   0.111035983879802   0.627344461564410   1.0000000
B2   B   0.888680159948081   0.111006746640620   0.626795873531047   1.0000000


