data_1
_audit_creation_method   'vasp2cif'
_cell_length_a    17.52789999999977
_cell_length_b    17.52789999999977
_cell_length_c    15.0
_cell_angle_alpha    90.0
_cell_angle_beta    90.0
_cell_angle_gamma    119.99999999999916

_symmetry_space_group_name_H-M    'P 1'
loop_
_atom_site_label
_atom_site_type_symbol
_atom_site_fract_x
_atom_site_fract_y
_atom_site_fract_z
_atom_site_occupancy
Al2   Al   0.542341432736546   0.457659969180440   0.110870988049617   1.0000000
As2   As   0.473914701825977   0.526087319371020   0.110672004104550   1.0000000
B2   B   0.906276423309344   0.954549287841695   0.111004260522245   1.0000000
B2   B   0.904098119198508   0.095903901997480   0.111007177545226   1.0000000
B2   B   0.903659536103812   0.238224490334841   0.111034157228399   1.0000000
B2   B   0.904676447090971   0.381145212375213   0.110952771018301   1.0000000
B2   B   0.908115031437227   0.524903545803661   0.111001266436427   1.0000000
B2   B   0.908992322555796   0.669140356111532   0.111091677198814   1.0000000
B2   B   0.910065975082507   0.814036957313925   0.111033452598471   1.0000000
B2   B   0.047919789047851   0.952082232148158   0.110970217883579   1.0000000
B2   B   0.045452733354309   0.093725597886647   0.111004260522245   1.0000000
B2   B   0.044662415744011   0.236886281579976   0.110992678968872   1.0000000
B2   B   0.045285195306215   0.380607294830827   0.110982573484372   1.0000000
B2   B   0.047278626420807   0.524287135957714   0.110971234442877   1.0000000
B2   B   0.049164515592664   0.667423679475729   0.111012951903896   1.0000000
B2   B   0.049370029722182   0.810134435374227   0.111028745658917   1.0000000
B2   B   0.189867585821772   0.950631991473823   0.111028745658917   1.0000000
B2   B   0.185965063882076   0.089936046113493   0.111033452598471   1.0000000
B2   B   0.184159554673330   0.232830309948736   0.111089813215098   1.0000000
B2   B   0.184925451590261   0.378802050308599   0.111062430411009   1.0000000
B2   B   0.186446925725799   0.524005811673295   0.111047657327864   1.0000000
B2   B   0.190362517791485   0.667098089932349   0.111036440959203   1.0000000
B2   B   0.190758337467104   0.809243683728905   0.111005513514530   1.0000000
B2   B   0.332578341721274   0.950837505603341   0.111012951903896   1.0000000
B2   B   0.330861665085469   0.091009698640195   0.111091677198814   1.0000000
B2   B   0.322575409306766   0.226321540993799   0.111196857096089   1.0000000
B2   B   0.321860195251460   0.371793726378523   0.111006059125617   1.0000000
B2   B   0.323647983210085   0.522941611957180   0.110996677213975   1.0000000
B2   B   0.332424420472995   0.667577600724000   0.111056383518689   1.0000000
B2   B   0.332903931264649   0.809639503404515   0.111036440959203   1.0000000
B2   B   0.475714885239280   0.952723394775191   0.110971234442877   1.0000000
B2   B   0.475098475393331   0.091886989758764   0.111001266436427   1.0000000
B2   B   0.473831414944102   0.229243233178545   0.111233795345334   1.0000000
B2   B   0.454679192693611   0.349833709796243   0.110777170949536   1.0000000
B2   B   0.477060409239825   0.676354037986915   0.110996677213975   1.0000000
B2   B   0.475996209523697   0.813555095470206   0.111047657327864   1.0000000
B2   B   0.619394726365179   0.954716825889787   0.110982573484372   1.0000000
B2   B   0.618856808820793   0.095325574105022   0.110952771018301   1.0000000
B2   B   0.618949507055778   0.236333372297857   0.111009676789108   1.0000000
B2   B   0.621281941270917   0.378720079925088   0.111210706422078   1.0000000
B2   B   0.650168311399752   0.545322828503388   0.110777170949536   1.0000000
B2   B   0.628208294817470   0.678141825945532   0.111006059125617   1.0000000
B2   B   0.621199970887403   0.815076569605734   0.111062430411009   1.0000000
B2   B   0.763115739616038   0.955339605452002   0.110992678968872   1.0000000
B2   B   0.761777530861167   0.096342485092185   0.111034157228399   1.0000000
B2   B   0.761832065020287   0.238169956175716   0.111002820089884   1.0000000
B2   B   0.763668648898151   0.381052514140225   0.111009676789108   1.0000000
B2   B   0.770758788017460   0.526170606252892   0.111233795345334   1.0000000
B2   B   0.773680480202203   0.677426611890235   0.111196857096089   1.0000000
B2   B   0.767171711247267   0.815842466522672   0.111089813215098   1.0000000
N2   N   0.954466751306079   0.907496141814487   0.110953348232503   1.0000000
N2   N   0.951585970341768   0.048415431576233   0.110995218214762   1.0000000
N2   N   0.950545548526640   0.190374853869048   0.111003915159778   1.0000000
N2   N   0.951004536530793   0.333035626920477   0.110973360241947   1.0000000
N2   N   0.953284726001090   0.476224858195164   0.110930379922291   1.0000000
N2   N   0.954882581236619   0.620082126672478   0.111013288545338   1.0000000
N2   N   0.955360755899072   0.764076750940282   0.111017979998402   1.0000000
N2   N   0.095507340910976   0.904494061007022   0.111004406777707   1.0000000
N2   N   0.092505260103500   0.045534650611934   0.110953348232503   1.0000000
N2   N   0.090708114801471   0.187913143660736   0.110990947812325   1.0000000
N2   N   0.091158192744870   0.331812304541273   0.110985292415966   1.0000000
N2   N   0.092637430405886   0.475759835254585   0.110972042655077   1.0000000
N2   N   0.095669700973045   0.619317847440554   0.110991660845319   1.0000000
N2   N   0.096287005999560   0.762177529471734   0.110997230178611   1.0000000
N2   N   0.237823872446279   0.903714395918436   0.110997230178611   1.0000000
N2   N   0.235924650977723   0.044640646018936   0.111017979998402   1.0000000
N2   N   0.229607791240988   0.182822075033543   0.111109967534536   1.0000000
N2   N   0.228981268724042   0.327515042084683   0.111097120763300   1.0000000
N2   N   0.230474084794700   0.474701634564648   0.111078053633901   1.0000000
N2   N   0.237143802875245   0.619312367664923   0.111037680563808   1.0000000
N2   N   0.238107061275149   0.761894340642853   0.111005933398375   1.0000000
N2   N   0.380683554477437   0.904331700944959   0.110991660845319   1.0000000
N2   N   0.379919275245513   0.045118820681385   0.111013288545338   1.0000000
N2   N   0.377247774462381   0.184752177492283   0.111188440966942   1.0000000
N2   N   0.363987031748919   0.318116482064368   0.111065825225072   1.0000000
N2   N   0.359426072341640   0.467105561968396   0.110824068285616   1.0000000
N2   N   0.379966411763349   0.620034990154650   0.110992973133630   1.0000000
N2   N   0.380689034253073   0.762857599042758   0.111037680563808   1.0000000
N2   N   0.524241566662406   0.907363971512113   0.110972042655077   1.0000000
N2   N   0.523776543721832   0.046716675916920   0.110930379922291   1.0000000
N2   N   0.523496361419232   0.185614365584454   0.111043645468312   1.0000000
N2   N   0.521901855870864   0.322251680530178   0.111257788556098   1.0000000
N2   N   0.532895839948599   0.640575329576363   0.110824068285616   1.0000000
N2   N   0.525299767352343   0.769527317123304   0.111078053633901   1.0000000
N2   N   0.668189097375730   0.908843209173133   0.110985292415966   1.0000000
N2   N   0.666965774996518   0.048996865387212   0.110973360241947   1.0000000
N2   N   0.666908206669405   0.190055574338688   0.110945545213337   1.0000000
N2   N   0.668073678640250   0.331927723276751   0.111052691350612   1.0000000
N2   N   0.677749721386828   0.478099546046134   0.111257788556098   1.0000000
N2   N   0.681884919852630   0.636014370169086   0.111065825225072   1.0000000
N2   N   0.672486359832312   0.771020133193960   0.111097120763300   1.0000000
N2   N   0.812088258257258   0.909293287116522   0.110990947812325   1.0000000
N2   N   0.809626548048958   0.049455853391369   0.111003915159778   1.0000000
N2   N   0.809096559320039   0.190904842597957   0.111033105770941   1.0000000
N2   N   0.809945827579313   0.333093195247595   0.110945545213337   1.0000000
N2   N   0.814387036333542   0.476505040497754   0.111043645468312   1.0000000
N2   N   0.815249224425727   0.622753627455617   0.111188440966942   1.0000000
N2   N   0.817179326884458   0.770393610677017   0.111109967534536   1.0000000


