data_1
_audit_creation_method   'vasp2cif'
_cell_length_a    14.93631414619966
_cell_length_b    14.936314146199727
_cell_length_c    13.341276283792837
_cell_angle_alpha    90.0
_cell_angle_beta    90.0
_cell_angle_gamma    119.99999999999984

_symmetry_space_group_name_H-M    'P 1'
loop_
_atom_site_label
_atom_site_type_symbol
_atom_site_fract_x
_atom_site_fract_y
_atom_site_fract_z
_atom_site_occupancy
Si2   Si   0.422819098158547   0.378076215745993   0.375000000000000   1.0000000
Si2   Si   0.571092566084804   0.452212949709066   0.375000000000000   1.0000000
N2   N   0.111364531210725   0.055682841008655   0.126020797987106   1.0000000
N2   N   0.611469463661260   0.555893185280745   0.123074986732537   1.0000000
N2   N   0.444717349337267   0.055685180340263   0.126008326481475   1.0000000
N2   N   0.944680161798142   0.555671795549710   0.125905986022029   1.0000000
N2   N   0.778083421128006   0.055708377230679   0.125450555658261   1.0000000
N2   N   0.111351388702927   0.722342361018238   0.624427194260850   1.0000000
N2   N   0.444717349337267   0.722365502330333   0.623991673518580   1.0000000
N2   N   0.278015619943921   0.222322753240640   0.624146332286293   1.0000000
N2   N   0.778073900689464   0.722433712479812   0.624494327813339   1.0000000
N2   N   0.611418985571850   0.222304319638559   0.624460259462916   1.0000000
N2   N   0.944739092174484   0.222355665530124   0.624433439149164   1.0000000
N2   N   0.278049978548212   0.722366018374255   0.125661588625645   1.0000000
N2   N   0.111374112345692   0.222353722839503   0.125928329348703   1.0000000
N2   N   0.444735393867584   0.222364010141808   0.125539986114429   1.0000000
N2   N   0.611418985571850   0.722447999266630   0.125539740536882   1.0000000
N2   N   0.944680161798142   0.722341699581774   0.125905986022043   1.0000000
N2   N   0.778085911570593   0.222325727938830   0.125632410265051   1.0000000
N2   N   0.111362288377977   0.889014744423064   0.624186265359912   1.0000000
N2   N   0.444719396659599   0.889026364996449   0.624184818276882   1.0000000
N2   N   0.278015619943921   0.389026200036649   0.624146332286293   1.0000000
N2   N   0.611469463661260   0.388909611713883   0.626925013267416   1.0000000
N2   N   0.778085911570593   0.889093516965096   0.624367589734930   1.0000000
N2   N   0.944723717694287   0.389002799454627   0.624180364996122   1.0000000
N2   N   0.111364531210726   0.389015023535445   0.126020797987106   1.0000000
N2   N   0.278049978548212   0.889017293507272   0.125661588625645   1.0000000
N2   N   0.611403796951161   0.889059842115491   0.125792614933376   1.0000000
N2   N   0.444539178707290   0.388936256020351   0.122512576083207   1.0000000
N2   N   0.944723717694287   0.889054251572959   0.125819635003804   1.0000000
N2   N   0.778073900689464   0.388973521542982   0.125505672186569   1.0000000
N2   N   0.278054928921336   0.555712367932239   0.623904148217034   1.0000000
N2   N   0.111364531210725   0.055682841008655   0.623979202012911   1.0000000
N2   N   0.611469463661260   0.555893185280745   0.626925013267416   1.0000000
N2   N   0.444717349337267   0.055685180340262   0.623991673518580   1.0000000
N2   N   0.944680161798142   0.555671795549710   0.624094013977894   1.0000000
N2   N   0.111362288377977   0.555680877288126   0.125813734640141   1.0000000
N2   N   0.778083421128006   0.055708377230677   0.624549444341693   1.0000000
N2   N   0.278054928921335   0.055675894322491   0.126095851782904   1.0000000
N2   N   0.444735393867584   0.555704717059152   0.125539986114405   1.0000000
N2   N   0.777991846057083   0.555662589695202   0.125625849769839   1.0000000
N2   N   0.611403796951161   0.055677288168924   0.125792614933376   1.0000000
N2   N   0.444735393867584   0.555704717059152   0.624460013885590   1.0000000
N2   N   0.944739092174484   0.055716759977874   0.125566560850823   1.0000000
N2   N   0.278049978548212   0.722366018374325   0.624338411374310   1.0000000
N2   N   0.111374112345692   0.222353722839503   0.624071670651298   1.0000000
N2   N   0.444735393867584   0.222364010141807   0.624460013885590   1.0000000
N2   N   0.611418985571850   0.722447999266630   0.624460259462916   1.0000000
N2   N   0.944680161798142   0.722341699581774   0.624094013977894   1.0000000
N2   N   0.778085911570593   0.222325727938830   0.624367589734930   1.0000000
N2   N   0.111351388702927   0.722342361018228   0.125572805739205   1.0000000
N2   N   0.444717349337273   0.722365502330333   0.126008326481475   1.0000000
N2   N   0.278015619943921   0.222322753240640   0.125853667713708   1.0000000
N2   N   0.778073900689475   0.722433712479800   0.125505672186560   1.0000000
N2   N   0.611418985571850   0.222304319638559   0.125539740536881   1.0000000
N2   N   0.944739092174484   0.222355665530124   0.125566560850815   1.0000000
N2   N   0.111364531210719   0.389015023535445   0.623979202012911   1.0000000
N2   N   0.278049978548212   0.889017293507272   0.624338411374310   1.0000000
N2   N   0.611403796951161   0.889059842115491   0.624207385066522   1.0000000
N2   N   0.444539178707290   0.388936256020351   0.627487423916799   1.0000000
N2   N   0.944723717694287   0.889054251572959   0.624180364996122   1.0000000
N2   N   0.111362288377977   0.889014744423064   0.125813734640142   1.0000000
N2   N   0.778073900689475   0.388973521542982   0.624494327813339   1.0000000
N2   N   0.444719396659562   0.889026364996449   0.125815181723086   1.0000000
N2   N   0.278015619943921   0.389026200036614   0.125853667713712   1.0000000
N2   N   0.278054928921336   0.555712367932239   0.126095851782902   1.0000000
N2   N   0.611469463661260   0.388909611713883   0.123074986732542   1.0000000
N2   N   0.778085911570593   0.889093516965096   0.125632410265051   1.0000000
N2   N   0.944723717694287   0.389002799454566   0.125819635003804   1.0000000
N2   N   0.111362288377972   0.555680877288139   0.624186265359912   1.0000000
N2   N   0.278054928921335   0.055675894322485   0.623904148217034   1.0000000
N2   N   0.777991846057083   0.555662589695202   0.624374150230215   1.0000000
N2   N   0.611403796951160   0.055677288168924   0.624207385066522   1.0000000
N2   N   0.944739092174484   0.055716759977874   0.624433439149164   1.0000000
N2   N   0.054796840646970   0.110569418223036   0.375000000000000   1.0000000
N2   N   0.555576813927342   0.623399947426147   0.375000000000000   1.0000000
N2   N   0.386565477421453   0.103415743008544   0.375000000000000   1.0000000
N2   N   0.890915564479956   0.612124448906642   0.375000000000000   1.0000000
N2   N   0.722993761408205   0.110148547973768   0.375000000000000   1.0000000
N2   N   0.055170629307393   0.777588341902901   0.875000000000000   1.0000000
N2   N   0.388493279223948   0.777588470298732   0.875000000000000   1.0000000
N2   N   0.221830859974742   0.277582096654044   0.875000000000000   1.0000000
N2   N   0.721830594088255   0.777577493276507   0.875000000000000   1.0000000
N2   N   0.555139162140909   0.277549396373180   0.875000000000000   1.0000000
N2   N   0.888506694600783   0.277583477817298   0.875000000000000   1.0000000
N2   N   0.221038369488921   0.777185851411136   0.375000000000000   1.0000000
N2   N   0.054796840646969   0.277560755757253   0.375000000000000   1.0000000
N2   N   0.375052868310308   0.254529968364365   0.375000000000000   1.0000000
N2   N   0.555201435229283   0.783101430324415   0.375000000000000   1.0000000
N2   N   0.893180086176579   0.781938485278605   0.375000000000000   1.0000000
N2   N   0.724379382390452   0.275131696575120   0.375000000000000   1.0000000
N2   N   0.055172336993609   0.944255785746140   0.875000000000000   1.0000000
N2   N   0.388493279223948   0.944238142258682   0.875000000000000   1.0000000
N2   N   0.221837297957966   0.444256227761341   0.875000000000000   1.0000000
N2   N   0.555175958095072   0.444254645714200   0.875000000000000   1.0000000
N2   N   0.721836323348250   0.944248675277374   0.875000000000000   1.0000000
N2   N   0.888510372661288   0.444250304009378   0.875000000000000   1.0000000
N2   N   0.054658354748992   0.444972353772609   0.375000000000000   1.0000000
N2   N   0.220497856067676   0.941408833964571   0.375000000000000   1.0000000
N2   N   0.555206778505732   0.944270055919478   0.375000000000000   1.0000000
N2   N   0.375052868310308   0.453856233279296   0.375000000000000   1.0000000
N2   N   0.889909528786993   0.946050090512538   0.375000000000000   1.0000000
N2   N   0.732926761209024   0.443450699380529   0.375000000000000   1.0000000
N2   N   0.221822902279310   0.610922779080216   0.875000000000000   1.0000000
N2   N   0.055172589217065   0.110918619620381   0.875000000000000   1.0000000
N2   N   0.555139162140909   0.610923099101032   0.875000000000000   1.0000000
N2   N   0.388482749764797   0.110886523650453   0.875000000000000   1.0000000
N2   N   0.888520290620753   0.610926811977098   0.875000000000000   1.0000000
N2   N   0.055571654075177   0.611526597485924   0.375000000000000   1.0000000
N2   N   0.721836323348260   0.110920981404171   0.875000000000000   1.0000000
N2   N   0.215776699218140   0.103033657553757   0.375000000000000   1.0000000
N2   N   0.386565477421452   0.616483067746304   0.375000000000000   1.0000000
N2   N   0.732926761209024   0.622809395161844   0.375000000000000   1.0000000
N2   N   0.555201435229283   0.105433338238362   0.375000000000000   1.0000000
N2   N   0.388482749764797   0.610929559447630   0.875000000000000   1.0000000
N2   N   0.889343567399849   0.111338450366606   0.375000000000000   1.0000000
N2   N   0.221825732940246   0.777579533136692   0.875000000000000   1.0000000
N2   N   0.055172589217067   0.277587302930044   0.875000000000000   1.0000000
N2   N   0.388493959864823   0.277573166148624   0.875000000000000   1.0000000
N2   N   0.555157063921735   0.777587518081597   0.875000000000000   1.0000000
N2   N   0.888510372661288   0.777593401985100   0.875000000000000   1.0000000
N2   N   0.721830594088255   0.277586434145140   0.875000000000000   1.0000000
N2   N   0.055571654075177   0.777378389922499   0.375000000000000   1.0000000
N2   N   0.387447459279319   0.779137322439059   0.375000000000000   1.0000000
N2   N   0.220295215577044   0.276814274455220   0.375000000000000   1.0000000
N2   N   0.724379382390452   0.782581019148640   0.375000000000000   1.0000000
N2   N   0.555576813927342   0.265510199834536   0.375000000000000   1.0000000
N2   N   0.889909528786993   0.277192771607793   0.375000000000000   1.0000000
N2   N   0.055172336993609   0.444249884580792   0.875000000000000   1.0000000
N2   N   0.221822902279310   0.944233456532443   0.875000000000000   1.0000000
N2   N   0.555162800486831   0.944248066910131   0.875000000000000   1.0000000
N2   N   0.388493959864830   0.444254127049432   0.875000000000000   1.0000000
N2   N   0.888506694600783   0.944256550116674   0.875000000000000   1.0000000
N2   N   0.054658354748992   0.943019334309617   0.375000000000000   1.0000000
N2   N   0.721850701539998   0.444266507100229   0.875000000000000   1.0000000
N2   N   0.387447459279313   0.941643470173480   0.375000000000000   1.0000000
N2   N   0.215776699218143   0.446076374997680   0.375000000000000   1.0000000
N2   N   0.220497856067661   0.612422355436393   0.375000000000000   1.0000000
N2   N   0.722993761408205   0.946178546767746   0.375000000000000   1.0000000
N2   N   0.893180086176579   0.444574934231351   0.375000000000000   1.0000000
N2   N   0.055170629307393   0.610915620737797   0.875000000000000   1.0000000
N2   N   0.221837297957966   0.110914403529961   0.875000000000000   1.0000000
N2   N   0.721850701539998   0.610917527773047   0.875000000000000   1.0000000
N2   N   0.555157063921735   0.110902879173520   0.875000000000000   1.0000000
N2   N   0.888509088987462   0.110921211160354   0.875000000000000   1.0000000
B2   B   0.107000799529986   0.051886058138343   0.375000000000000   1.0000000
B2   B   0.624488126402915   0.584349273099374   0.375000000000000   1.0000000
B2   B   0.443855599583105   0.050909415647313   0.375000000000000   1.0000000
B2   B   0.945482208833561   0.555664298557291   0.375000000000000   1.0000000
B2   B   0.778714204430631   0.056023768882009   0.375000000000000   1.0000000
B2   B   0.110666117964645   0.721999725649011   0.875000000000000   1.0000000
B2   B   0.444008795306615   0.722001022139203   0.875000000000000   1.0000000
B2   B   0.277445965767756   0.222072979027283   0.875000000000000   1.0000000
B2   B   0.777314488590544   0.721957736528569   0.875000000000000   1.0000000
B2   B   0.610709347081499   0.222063193691765   0.875000000000000   1.0000000
B2   B   0.944065892494638   0.222051218926041   0.875000000000000   1.0000000
B2   B   0.276725786049070   0.722871247047137   0.375000000000000   1.0000000
B2   B   0.109380073964460   0.221356703648905   0.375000000000000   1.0000000
B2   B   0.443023441371480   0.212484249371294   0.375000000000000   1.0000000
B2   B   0.612587891385690   0.731440742263358   0.375000000000000   1.0000000
B2   B   0.945482208833561   0.723151243609570   0.375000000000000   1.0000000
B2   B   0.779267182003009   0.220604030343392   0.375000000000000   1.0000000
B2   B   0.110692036710043   0.888677691469404   0.875000000000000   1.0000000
B2   B   0.444027692079232   0.888680512706228   0.875000000000000   1.0000000
B2   B   0.277445965767756   0.388706320073722   0.875000000000000   1.0000000
B2   B   0.610707725481836   0.388701743836901   0.875000000000000   1.0000000
B2   B   0.777352356453607   0.888656780130031   0.875000000000000   1.0000000
B2   B   0.944055368457403   0.388691363836688   0.875000000000000   1.0000000
B2   B   0.107000799529986   0.388448074724944   0.375000000000000   1.0000000
B2   B   0.276725786049070   0.887187872335220   0.375000000000000   1.0000000
B2   B   0.612081795353227   0.891981146736577   0.375000000000000   1.0000000
B2   B   0.945606027191382   0.890849711479952   0.375000000000000   1.0000000
B2   B   0.784402215183982   0.387021223855576   0.375000000000000   1.0000000
B2   B   0.277404736982005   0.555386027311937   0.875000000000000   1.0000000
B2   B   0.110695288497319   0.055347616267982   0.875000000000000   1.0000000
B2   B   0.610707725481836   0.555339314978338   0.875000000000000   1.0000000
B2   B   0.444008795306615   0.055341106500763   0.875000000000000   1.0000000
B2   B   0.944047858459965   0.555376923971719   0.875000000000000   1.0000000
B2   B   0.110038729533915   0.555870002503878   0.375000000000000   1.0000000
B2   B   0.777345123949474   0.055339228641437   0.875000000000000   1.0000000
B2   B   0.275364870084917   0.050917908850067   0.375000000000000   1.0000000
B2   B   0.443023441371480   0.563872525333516   0.375000000000000   1.0000000
B2   B   0.780663020473855   0.556998176903567   0.375000000000000   1.0000000
B2   B   0.612081795353227   0.053433981949961   0.375000000000000   1.0000000
B2   B   0.444048776284590   0.555350024092637   0.875000000000000   1.0000000
B2   B   0.944553736597368   0.056125859905489   0.375000000000000   1.0000000
B2   B   0.277392956321586   0.722019255162235   0.875000000000000   1.0000000
B2   B   0.110718424673223   0.222025879003242   0.875000000000000   1.0000000
B2   B   0.444048776284590   0.222032085525343   0.875000000000000   1.0000000
B2   B   0.610709347081499   0.721979486723077   0.875000000000000   1.0000000
B2   B   0.944047858459965   0.722004267821525   0.875000000000000   1.0000000
B2   B   0.777352356453607   0.222028909656780   0.875000000000000   1.0000000
B2   B   0.110546031641285   0.721939682487405   0.375000000000000   1.0000000
B2   B   0.443855599583105   0.726279517269094   0.375000000000000   1.0000000
B2   B   0.267649262099712   0.210993176488086   0.375000000000000   1.0000000
B2   B   0.784402215183983   0.730714324661636   0.375000000000000   1.0000000
B2   B   0.612587891385690   0.214480482455660   0.375000000000000   1.0000000
B2   B   0.944553736597384   0.221761210025251   0.375000000000000   1.0000000
B2   B   0.110695288497319   0.388681005562691   0.875000000000000   1.0000000
B2   B   0.277392956321586   0.888707034492737   0.875000000000000   1.0000000
B2   B   0.610716951751127   0.888695258838586   0.875000000000000   1.0000000
B2   B   0.444081643065181   0.388707488199309   0.875000000000000   1.0000000
B2   B   0.944055368457403   0.888697337954102   0.875000000000000   1.0000000
B2   B   0.110038729533915   0.887502060363344   0.375000000000000   1.0000000
B2   B   0.777314488590544   0.388690085395301   0.875000000000000   1.0000000
B2   B   0.444091308758015   0.888712321045653   0.375000000000000   1.0000000
B2   B   0.267649262099721   0.389989418945021   0.375000000000000   1.0000000
B2   B   0.275364870084908   0.557780294568140   0.375000000000000   1.0000000
B2   B   0.624488126402915   0.373472186636737   0.375000000000000   1.0000000
B2   B   0.779267182003009   0.891996484992777   0.375000000000000   1.0000000
B2   B   0.945606027191382   0.388089649044566   0.375000000000000   1.0000000
B2   B   0.110692036710043   0.555347678574064   0.875000000000000   1.0000000
B2   B   0.277404736982005   0.055352043003423   0.875000000000000   1.0000000
B2   B   0.777333385716912   0.555333359525068   0.875000000000000   1.0000000
B2   B   0.610716951751127   0.055355026245854   0.875000000000000   1.0000000
B2   B   0.944065892494638   0.055348006901861   0.875000000000000   1.0000000
B2   B   0.055810522340381   0.111212522283185   0.125858584752049   1.0000000
B2   B   0.556048385055147   0.611238931294436   0.124881691097675   1.0000000
B2   B   0.389224262966322   0.111327831548777   0.126039060795993   1.0000000
B2   B   0.889046216183832   0.611189774758394   0.125960871196384   1.0000000
B2   B   0.722502163377025   0.111219430746201   0.125672811159518   1.0000000
B2   B   0.055740326229933   0.777851700772476   0.624225507667923   1.0000000
B2   B   0.389178299397739   0.777882375491100   0.624140135458874   1.0000000
B2   B   0.222575215643025   0.277954274488203   0.624175196130386   1.0000000
B2   B   0.722479890814846   0.777902197214175   0.624378270076825   1.0000000
B2   B   0.556048385055148   0.278142787094120   0.625118308902355   1.0000000
B2   B   0.889216152488701   0.277922690100180   0.624279537523411   1.0000000
B2   B   0.222525488024123   0.777929410678689   0.125585147869962   1.0000000
B2   B   0.055810522340374   0.277931333390547   0.125858584752049   1.0000000
B2   B   0.389275532144390   0.278061180381943   0.124535649194202   1.0000000
B2   B   0.555916001586351   0.777929956268323   0.125893928876817   1.0000000
B2   B   0.889120994592950   0.777911126482382   0.125846022145843   1.0000000
B2   B   0.722479890814846   0.277911026934134   0.125621729923100   1.0000000
B2   B   0.055790697734628   0.944590588675076   0.624072081332386   1.0000000
B2   B   0.389178299397740   0.944629257240000   0.624140135458847   1.0000000
B2   B   0.222556270702528   0.444611140778645   0.623950473202951   1.0000000
B2   B   0.555948436073591   0.444640884703460   0.624594608946970   1.0000000
B2   B   0.722502163377025   0.944616065964339   0.624327188840428   1.0000000
B2   B   0.889120994592950   0.444543201443776   0.624153977854102   1.0000000
B2   B   0.055790697734632   0.444533442392779   0.125927918667608   1.0000000
B2   B   0.222575092918580   0.944632557017365   0.125875595485965   1.0000000
B2   B   0.555919062497920   0.944626197915527   0.125864390079380   1.0000000
B2   B   0.389275532144385   0.444547685095776   0.124535649194201   1.0000000
B2   B   0.889216152488701   0.944626795721801   0.125720462476567   1.0000000
B2   B   0.722303998111368   0.444438422939731   0.124911367389666   1.0000000
B2   B   0.222575092918580   0.611275869234638   0.624124404514053   1.0000000
B2   B   0.055810522340374   0.111212522283185   0.624141415247962   1.0000000
B2   B   0.556048385055148   0.611238931294360   0.625118308902355   1.0000000
B2   B   0.389224262966322   0.111327831548778   0.623960939204027   1.0000000
B2   B   0.889046216183832   0.611189774758394   0.624039128803586   1.0000000
B2   B   0.055740326229929   0.611221958790682   0.125774492332032   1.0000000
B2   B   0.722502163377025   0.111219430746201   0.624327188840428   1.0000000
B2   B   0.222556270702528   0.111278463257197   0.126049526796970   1.0000000
B2   B   0.389224262966322   0.611229764751036   0.126039060795993   1.0000000
B2   B   0.722303998111368   0.611198908504852   0.124911367389666   1.0000000
B2   B   0.555916001586351   0.111319378651403   0.125893928876817   1.0000000
B2   B   0.389224262966322   0.611229764751036   0.623960939204027   1.0000000
B2   B   0.889209506009796   0.111271419671559   0.125532341488138   1.0000000
B2   B   0.222525488024123   0.777929410678689   0.624414852130076   1.0000000
B2   B   0.055810522340376   0.277931333390547   0.624141415247962   1.0000000
B2   B   0.389275532144385   0.278061180381943   0.625464350805800   1.0000000
B2   B   0.555916001586351   0.777929956268323   0.624106071123118   1.0000000
B2   B   0.889120994592950   0.777911126482382   0.624153977854102   1.0000000
B2   B   0.722479890814846   0.277911026934134   0.624378270076825   1.0000000
B2   B   0.055740326229932   0.777851700772476   0.125774492332032   1.0000000
B2   B   0.389178299397740   0.777882375491100   0.125859864541087   1.0000000
B2   B   0.222575215643006   0.277954274488202   0.125824803869635   1.0000000
B2   B   0.722479890814838   0.777902197214175   0.125621729923100   1.0000000
B2   B   0.556048385055156   0.278142787094120   0.124881691097675   1.0000000
B2   B   0.889216152488701   0.277922690100180   0.125720462476567   1.0000000
B2   B   0.055790697734623   0.444533442392779   0.624072081332386   1.0000000
B2   B   0.222575092918580   0.944632557017365   0.624124404514053   1.0000000
B2   B   0.555919062497920   0.944626197915527   0.624135609920521   1.0000000
B2   B   0.389275532144385   0.444547685095776   0.625464350805801   1.0000000
B2   B   0.889216152488701   0.944626795721801   0.624279537523411   1.0000000
B2   B   0.055790697734623   0.944590588675076   0.125927918667608   1.0000000
B2   B   0.722303998111368   0.444438422939731   0.625088632610487   1.0000000
B2   B   0.389178299397740   0.944629257240000   0.125859864541087   1.0000000
B2   B   0.222556270702528   0.444611140778649   0.126049526796970   1.0000000
B2   B   0.222575092918580   0.611275869234638   0.125875595485965   1.0000000
B2   B   0.555948436073585   0.444640884703491   0.125405391053011   1.0000000
B2   B   0.722502163377025   0.944616065964337   0.125672811159518   1.0000000
B2   B   0.889120994592950   0.444543201443776   0.125846022145843   1.0000000
B2   B   0.055740326229933   0.611221958790682   0.624225507667923   1.0000000
B2   B   0.222556270702528   0.111278463257197   0.623950473202951   1.0000000
B2   B   0.722303998111368   0.611198908504852   0.625088632610488   1.0000000
B2   B   0.555916001586351   0.111319378651403   0.624106071123118   1.0000000
B2   B   0.889209506009796   0.111271419671559   0.624467658511946   1.0000000


