data_1
_audit_creation_method   'vasp2cif'
_cell_length_a    17.52789999999977
_cell_length_b    17.52789999999977
_cell_length_c    15.0
_cell_angle_alpha    90.0
_cell_angle_beta    90.0
_cell_angle_gamma    119.99999999999916

_symmetry_space_group_name_H-M    'P 1'
loop_
_atom_site_label
_atom_site_type_symbol
_atom_site_fract_x
_atom_site_fract_y
_atom_site_fract_z
_atom_site_occupancy
B2   B   0.905064517135151   0.952624046720734   0.111013890954741   1.0000000
B2   B   0.904747347929020   0.095254673266976   0.111019759112939   1.0000000
B2   B   0.904641564336843   0.238035129013924   0.111051816561986   1.0000000
B2   B   0.904747347929020   0.380921368353041   0.111019759112939   1.0000000
B2   B   0.905064517135151   0.523870875662419   0.111013890954741   1.0000000
B2   B   0.905121350179180   0.666821410287941   0.111061018661630   1.0000000
B2   B   0.905121350179180   0.809730345139241   0.111061018661630   1.0000000
B2   B   0.047674877243783   0.952327143952221   0.111017966445738   1.0000000
B2   B   0.047377974475270   0.094937504060845   0.111013890954741   1.0000000
B2   B   0.047196554480804   0.237807442505302   0.111027242325037   1.0000000
B2   B   0.047196554480804   0.380819517222502   0.111027242325037   1.0000000
B2   B   0.047377974475270   0.523870875662419   0.111013890954741   1.0000000
B2   B   0.047674877243783   0.666779850095559   0.111017966445738   1.0000000
B2   B   0.047745662390391   0.809588889597197   0.111000939619555   1.0000000
B2   B   0.190413131598806   0.952256358805613   0.111000939619555   1.0000000
B2   B   0.190271676056762   0.094880671016817   0.111061018661630   1.0000000
B2   B   0.189548365653675   0.237125593807514   0.111049988502653   1.0000000
B2   B   0.189473081294036   0.380451743270518   0.111028326014494   1.0000000
B2   B   0.189548365653675   0.523853177094162   0.111049988502653   1.0000000
B2   B   0.190271676056762   0.666821410287941   0.111061018661630   1.0000000
B2   B   0.190413131598806   0.809588889597197   0.111000939619555   1.0000000
B2   B   0.333222171101439   0.952327143952221   0.111017966445738   1.0000000
B2   B   0.333180610909059   0.094880671016817   0.111061018661630   1.0000000
B2   B   0.332961924632290   0.237352233314581   0.111093117099983   1.0000000
B2   B   0.331438223114559   0.378504798282712   0.111007807961111   1.0000000
B2   B   0.331438223114559   0.524363830078847   0.111007807961111   1.0000000
B2   B   0.332961924632290   0.667040096564708   0.111093117099983   1.0000000
B2   B   0.333180610909059   0.809730345139241   0.111061018661630   1.0000000
B2   B   0.476131145534579   0.952624046720734   0.111013890954741   1.0000000
B2   B   0.476131145534579   0.094937504060845   0.111013890954741   1.0000000
B2   B   0.476148844102835   0.237125593807514   0.111049988502653   1.0000000
B2   B   0.475638191118151   0.378504798282712   0.111007807961111   1.0000000
B2   B   0.475638191118151   0.668563798082440   0.111007807961111   1.0000000
B2   B   0.476148844102835   0.810453655542328   0.111049988502653   1.0000000
B2   B   0.619182503973502   0.952805466715200   0.111027242325037   1.0000000
B2   B   0.619080652842962   0.095254673266976   0.111019759112939   1.0000000
B2   B   0.619182503973502   0.237807442505302   0.111027242325037   1.0000000
B2   B   0.619550277925486   0.380451743270518   0.111028326014494   1.0000000
B2   B   0.621497222913291   0.524363830078847   0.111007807961111   1.0000000
B2   B   0.621497222913291   0.668563798082440   0.111007807961111   1.0000000
B2   B   0.619550277925486   0.810528939901968   0.111028326014494   1.0000000
B2   B   0.762194578690701   0.952805466715200   0.111027242325037   1.0000000
B2   B   0.761966892182078   0.095360456859152   0.111051816561986   1.0000000
B2   B   0.761966892182078   0.238035129013924   0.111051816561986   1.0000000
B2   B   0.762194578690701   0.380819517222502   0.111027242325037   1.0000000
B2   B   0.762876427388491   0.523853177094162   0.111049988502653   1.0000000
B2   B   0.762649787881422   0.667040096564708   0.111093117099983   1.0000000
B2   B   0.762876427388491   0.810453655542328   0.111049988502653   1.0000000
N2   N   0.952540188998587   0.904879890538401   0.110998268385094   1.0000000
N2   N   0.952361682509383   0.047639719408623   0.110969742218138   1.0000000
N2   N   0.952159118656316   0.190363617543339   0.111002730513801   1.0000000
N2   N   0.952159118656316   0.333222483230975   0.111002730513801   1.0000000
N2   N   0.952361682509383   0.476148945218758   0.110969742218138   1.0000000
N2   N   0.952540188998587   0.619088992135181   0.110998268385094   1.0000000
N2   N   0.952599208285850   0.762013950980426   0.111011296709725   1.0000000
N2   N   0.095259406842785   0.904741995075214   0.110964303858153   1.0000000
N2   N   0.095121511379597   0.047461212919418   0.110998268385094   1.0000000
N2   N   0.094629669403061   0.189980139462493   0.110996956597499   1.0000000
N2   N   0.094520100419297   0.332974397046649   0.110998789226182   1.0000000
N2   N   0.094629669403061   0.476078223614569   0.110996956597499   1.0000000
N2   N   0.095121511379597   0.619088992135181   0.110998268385094   1.0000000
N2   N   0.095259406842785   0.761947816998577   0.110964303858153   1.0000000
N2   N   0.238053584919429   0.904741995075214   0.110964303858153   1.0000000
N2   N   0.237987450937580   0.047402193632156   0.111011296709725   1.0000000
N2   N   0.237732117997032   0.190005568836981   0.111046779623438   1.0000000
N2   N   0.236411610166803   0.332037447187789   0.111009531489303   1.0000000
N2   N   0.236411610166803   0.475802856653008   0.111009531489303   1.0000000
N2   N   0.237732117997032   0.619155242835046   0.111046779623438   1.0000000
N2   N   0.237987450937580   0.762013950980426   0.111011296709725   1.0000000
N2   N   0.380912409782817   0.904879890538401   0.110998268385094   1.0000000
N2   N   0.380912409782817   0.047461212919418   0.110998268385094   1.0000000
N2   N   0.380846159082952   0.190005568836981   0.111046779623438   1.0000000
N2   N   0.380528757175662   0.332484806108322   0.111059783271387   1.0000000
N2   N   0.371213166640383   0.471320930157188   0.110837601616538   1.0000000
N2   N   0.380528757175662   0.619472644742336   0.111059783271387   1.0000000
N2   N   0.380846159082952   0.762269283920973   0.111046779623438   1.0000000
N2   N   0.523923178302429   0.905371732514938   0.110996956597499   1.0000000
N2   N   0.523852456698239   0.047639719408623   0.110969742218138   1.0000000
N2   N   0.523923178302429   0.189980139462493   0.110996956597499   1.0000000
N2   N   0.524198545263988   0.332037447187789   0.111009531489303   1.0000000
N2   N   0.528680471759808   0.471320930157188   0.110837601616538   1.0000000
N2   N   0.528680471759808   0.628788235277616   0.110837601616538   1.0000000
N2   N   0.524198545263988   0.763589791751202   0.111009531489303   1.0000000
N2   N   0.667027004870348   0.905481301498702   0.110998789226182   1.0000000
N2   N   0.666778918686022   0.047842283261689   0.111002730513801   1.0000000
N2   N   0.666778918686022   0.190363617543339   0.111002730513801   1.0000000
N2   N   0.667027004870348   0.332974397046649   0.110998789226182   1.0000000
N2   N   0.667963954729209   0.475802856653008   0.111009531489303   1.0000000
N2   N   0.667516595808675   0.619472644742336   0.111059783271387   1.0000000
N2   N   0.667963954729209   0.763589791751202   0.111009531489303   1.0000000
N2   N   0.810021262455506   0.905371732514938   0.110996956597499   1.0000000
N2   N   0.809637784374660   0.047842283261689   0.111002730513801   1.0000000
N2   N   0.809525273905997   0.190476128012001   0.111021155567178   1.0000000
N2   N   0.809637784374660   0.333222483230975   0.111002730513801   1.0000000
N2   N   0.810021262455506   0.476078223614569   0.110996956597499   1.0000000
N2   N   0.809995833081017   0.619155242835046   0.111046779623438   1.0000000
N2   N   0.809995833081017   0.762269283920973   0.111046779623438   1.0000000
O2   O   0.476191212381998   0.523810808815000   0.111493229082512   1.0000000


