data_1
_audit_creation_method   'vasp2cif'
_cell_length_a    14.93631414619966
_cell_length_b    14.936314146199727
_cell_length_c    13.341276283792837
_cell_angle_alpha    90.0
_cell_angle_beta    90.0
_cell_angle_gamma    119.99999999999984

_symmetry_space_group_name_H-M    'P 1'
loop_
_atom_site_label
_atom_site_type_symbol
_atom_site_fract_x
_atom_site_fract_y
_atom_site_fract_z
_atom_site_occupancy
P2   P   0.497069729028170   0.415201531180752   0.375000000000000   1.0000000
N2   N   0.111131326362034   0.055557710740200   0.123322791808236   1.0000000
N2   N   0.611126272548950   0.555583703584037   0.121870416279672   1.0000000
N2   N   0.444468040830406   0.055552548301928   0.123164448379197   1.0000000
N2   N   0.944445671590508   0.555558794730395   0.123369346532090   1.0000000
N2   N   0.777816801106849   0.055575067220088   0.123151803292028   1.0000000
N2   N   0.111114817590061   0.722224075461693   0.626719621558195   1.0000000
N2   N   0.444468040830406   0.722248825861825   0.626835551620808   1.0000000
N2   N   0.277799455733423   0.222224801307786   0.627154278331608   1.0000000
N2   N   0.777788409201474   0.722226970336624   0.626914103611825   1.0000000
N2   N   0.611131735148391   0.222214760873811   0.627141266160563   1.0000000
N2   N   0.944480184385235   0.222243155419455   0.626720309948576   1.0000000
N2   N   0.277791809602918   0.722232772583016   0.123232735850469   1.0000000
N2   N   0.111144602669748   0.222238968001538   0.123271931869398   1.0000000
N2   N   0.444467938775962   0.222219226045478   0.122560277493164   1.0000000
N2   N   0.611131735148391   0.722250307607919   0.122858733839442   1.0000000
N2   N   0.944445671590508   0.722220210193423   0.123369346532090   1.0000000
N2   N   0.777810599632367   0.222233580741041   0.123189572268008   1.0000000
N2   N   0.111117687029056   0.888885554373607   0.626673276193734   1.0000000
N2   N   0.444466474132614   0.888899903732959   0.626770549322441   1.0000000
N2   N   0.277799455733423   0.388907987758961   0.627154278331608   1.0000000
N2   N   0.611126272548950   0.388875902298245   0.628129583720327   1.0000000
N2   N   0.777810599632367   0.888910352224656   0.626810427731992   1.0000000
N2   N   0.944457497997747   0.388900032745071   0.626627163776130   1.0000000
N2   N   0.111131326362034   0.388906948955165   0.123322791808235   1.0000000
N2   N   0.277791809602918   0.888892370353225   0.123232735850469   1.0000000
N2   N   0.611143103831546   0.888913721078289   0.123163237221883   1.0000000
N2   N   0.444445835858951   0.388889584596139   0.121771976603215   1.0000000
N2   N   0.944457497997747   0.888890798586010   0.123372836223872   1.0000000
N2   N   0.777788409201474   0.388894772198178   0.123085896388172   1.0000000
N2   N   0.277794207285926   0.555574522538164   0.626829350334961   1.0000000
N2   N   0.111131326362034   0.055557710740200   0.626677208191758   1.0000000
N2   N   0.611126272548950   0.555583703584037   0.628129583720327   1.0000000
N2   N   0.444468040830406   0.055552548301928   0.626835551620808   1.0000000
N2   N   0.944445671590508   0.555558794730395   0.626630653467914   1.0000000
N2   N   0.111117687029056   0.555565465988782   0.123326723806267   1.0000000
N2   N   0.777816801106849   0.055575067220088   0.626848196707968   1.0000000
N2   N   0.277794207285926   0.055553018081098   0.123170649665039   1.0000000
N2   N   0.444467938775962   0.555582046063822   0.122560277493164   1.0000000
N2   N   0.777765925434189   0.555549629383759   0.122924429965836   1.0000000
N2   N   0.611143103831546   0.055562716086585   0.123163237221883   1.0000000
N2   N   0.444467938775962   0.555582046063822   0.627439722506835   1.0000000
N2   N   0.944480184385235   0.055570362299115   0.123279690051423   1.0000000
N2   N   0.277791809602918   0.722232772583016   0.626767264149528   1.0000000
N2   N   0.111144602669748   0.222238968001538   0.626728068130603   1.0000000
N2   N   0.444467938775962   0.222219226045478   0.627439722506835   1.0000000
N2   N   0.611131735148391   0.722250307607919   0.627141266160563   1.0000000
N2   N   0.944445671590508   0.722220210193423   0.626630653467914   1.0000000
N2   N   0.777810599632367   0.222233580741041   0.626810427731992   1.0000000
N2   N   0.111114817590061   0.722224075461693   0.123280378441805   1.0000000
N2   N   0.444468040830406   0.722248825861825   0.123164448379197   1.0000000
N2   N   0.277799455733423   0.222224801307786   0.122845721668388   1.0000000
N2   N   0.777788409201474   0.722226970336624   0.123085896388172   1.0000000
N2   N   0.611131735148391   0.222214760873811   0.122858733839442   1.0000000
N2   N   0.944480184385235   0.222243155419455   0.123279690051423   1.0000000
N2   N   0.111131326362034   0.388906948955165   0.626677208191758   1.0000000
N2   N   0.277791809602918   0.888892370353225   0.626767264149528   1.0000000
N2   N   0.611143103831546   0.888913721078289   0.626836762778128   1.0000000
N2   N   0.444445835858951   0.388889584596139   0.628228023396785   1.0000000
N2   N   0.944457497997747   0.888890798586010   0.626627163776130   1.0000000
N2   N   0.111117687029056   0.888885554373607   0.123326723806267   1.0000000
N2   N   0.777788409201474   0.388894772198178   0.626914103611825   1.0000000
N2   N   0.444466474132614   0.888899903732959   0.123229450677560   1.0000000
N2   N   0.277799455733423   0.388907987758961   0.122845721668388   1.0000000
N2   N   0.277794207285926   0.555574522538164   0.123170649665039   1.0000000
N2   N   0.611126272548950   0.388875902298245   0.121870416279672   1.0000000
N2   N   0.777810599632367   0.888910352224656   0.123189572268008   1.0000000
N2   N   0.944457497997747   0.388900032745071   0.123372836223872   1.0000000
N2   N   0.111117687029056   0.555565465988782   0.626673276193734   1.0000000
N2   N   0.277794207285926   0.055553018081098   0.626829350334961   1.0000000
N2   N   0.777765925434189   0.555549629383759   0.627075570034168   1.0000000
N2   N   0.611143103831546   0.055562716086585   0.626836762778128   1.0000000
N2   N   0.944480184385235   0.055570362299115   0.626720309948576   1.0000000
N2   N   0.058168905028580   0.112777494734055   0.375000000000000   1.0000000
N2   N   0.554479033394859   0.619825806421766   0.375000000000000   1.0000000
N2   N   0.387209880390023   0.107046373708431   0.375000000000000   1.0000000
N2   N   0.882309823509354   0.607821578421349   0.375000000000000   1.0000000
N2   N   0.722908320318404   0.110582737745516   0.375000000000000   1.0000000
N2   N   0.055585415474037   0.777793026508488   0.875000000000000   1.0000000
N2   N   0.388917463907584   0.777793890434063   0.875000000000000   1.0000000
N2   N   0.222245993550258   0.277789663441795   0.875000000000000   1.0000000
N2   N   0.722257723574683   0.777799620900976   0.875000000000000   1.0000000
N2   N   0.555585612066293   0.277787378402696   0.875000000000000   1.0000000
N2   N   0.888921073169078   0.277793304741081   0.875000000000000   1.0000000
N2   N   0.218926690288868   0.776130011811097   0.375000000000000   1.0000000
N2   N   0.058168905028580   0.278724743627859   0.375000000000000   1.0000000
N2   N   0.396973398562387   0.280431839479869   0.375000000000000   1.0000000
N2   N   0.554633139460212   0.781236960576460   0.375000000000000   1.0000000
N2   N   0.885666747642077   0.776422082745014   0.375000000000000   1.0000000
N2   N   0.722047678050128   0.275422957555778   0.375000000000000   1.0000000
N2   N   0.055582355216275   0.944457123189928   0.875000000000000   1.0000000
N2   N   0.388917463907584   0.944456906806861   0.875000000000000   1.0000000
N2   N   0.222244849094539   0.444458970632941   0.875000000000000   1.0000000
N2   N   0.555588564640689   0.444460948987005   0.875000000000000   1.0000000
N2   N   0.722251001578478   0.944461097647211   0.875000000000000   1.0000000
N2   N   0.888925698176927   0.444460485907832   0.875000000000000   1.0000000
N2   N   0.055158737141936   0.443927040369279   0.375000000000000   1.0000000
N2   N   0.219794914027699   0.942555388170456   0.375000000000000   1.0000000
N2   N   0.554628234648772   0.943980783991049   0.375000000000000   1.0000000
N2   N   0.396973398562387   0.449874892415850   0.375000000000000   1.0000000
N2   N   0.889893792858166   0.945700492785239   0.375000000000000   1.0000000
N2   N   0.714195572645999   0.439513535202019   0.375000000000000   1.0000000
N2   N   0.222246884161786   0.611125229007083   0.875000000000000   1.0000000
N2   N   0.055580513746825   0.111122637612612   0.875000000000000   1.0000000
N2   N   0.555585612066293   0.611131566996941   0.875000000000000   1.0000000
N2   N   0.388916203052908   0.111118293897113   0.875000000000000   1.0000000
N2   N   0.888928385171959   0.611130859252647   0.875000000000000   1.0000000
N2   N   0.051583890771674   0.609311279386368   0.375000000000000   1.0000000
N2   N   0.722251001578478   0.111123237264600   0.875000000000000   1.0000000
N2   N   0.224962445661218   0.112995937142750   0.375000000000000   1.0000000
N2   N   0.387209880390023   0.613496840014944   0.375000000000000   1.0000000
N2   N   0.714195572645999   0.608015370777316   0.375000000000000   1.0000000
N2   N   0.554633139460212   0.106729512217085   0.375000000000000   1.0000000
N2   N   0.388916203052908   0.611131242489136   0.875000000000000   1.0000000
N2   N   0.890764504358360   0.112048918845850   0.375000000000000   1.0000000
N2   N   0.222250212031554   0.777791772682454   0.875000000000000   1.0000000
N2   N   0.055580513746825   0.277791209467554   0.875000000000000   1.0000000
N2   N   0.388917174059760   0.277788220755120   0.875000000000000   1.0000000
N2   N   0.555584837929567   0.777797771859176   0.875000000000000   1.0000000
N2   N   0.888925698176927   0.777798545602430   0.875000000000000   1.0000000
N2   N   0.722257723574683   0.277791436007055   0.875000000000000   1.0000000
N2   N   0.051583890771674   0.775605944718638   0.375000000000000   1.0000000
N2   N   0.386614359390348   0.777768149727045   0.375000000000000   1.0000000
N2   N   0.227169450376290   0.280251391854812   0.375000000000000   1.0000000
N2   N   0.722047678050128   0.779958053827689   0.375000000000000   1.0000000
N2   N   0.554479033394859   0.267986560306421   0.375000000000000   1.0000000
N2   N   0.889893792858166   0.277526633406268   0.375000000000000   1.0000000
N2   N   0.055582355216275   0.444458565359669   0.875000000000000   1.0000000
N2   N   0.222246884161786   0.944454988488028   0.875000000000000   1.0000000
N2   N   0.555583043061719   0.944458188197514   0.875000000000000   1.0000000
N2   N   0.388917174059760   0.444462286637974   0.875000000000000   1.0000000
N2   N   0.888921073169078   0.944461101761320   0.875000000000000   1.0000000
N2   N   0.055158737141936   0.944565030105992   0.375000000000000   1.0000000
N2   N   0.722260715732941   0.444462554911072   0.875000000000000   1.0000000
N2   N   0.386614359390348   0.942179542996636   0.375000000000000   1.0000000
N2   N   0.224962445661218   0.445299841851804   0.375000000000000   1.0000000
N2   N   0.219794914027699   0.610572859190588   0.375000000000000   1.0000000
N2   N   0.722908320318404   0.945658915906226   0.375000000000000   1.0000000
N2   N   0.885666747642077   0.442577998230412   0.375000000000000   1.0000000
N2   N   0.055585415474037   0.611125722298901   0.875000000000000   1.0000000
N2   N   0.222244849094539   0.111119211794932   0.875000000000000   1.0000000
N2   N   0.722260715732941   0.611131494155194   0.875000000000000   1.0000000
N2   N   0.555584837929567   0.111120399403716   0.875000000000000   1.0000000
N2   N   0.888917377057902   0.111125355195620   0.875000000000000   1.0000000
B2   B   0.112916968924438   0.056506549911548   0.375000000000000   1.0000000
B2   B   0.602007989345382   0.559588692955531   0.375000000000000   1.0000000
B2   B   0.443213835401253   0.052538602928600   0.375000000000000   1.0000000
B2   B   0.939813750980891   0.553695169868523   0.375000000000000   1.0000000
B2   B   0.779583481828923   0.056458407581130   0.375000000000000   1.0000000
B2   B   0.111132810866964   0.722233072100138   0.875000000000000   1.0000000
B2   B   0.444474830763618   0.722240626941598   0.875000000000000   1.0000000
B2   B   0.277808740951328   0.222233573745589   0.875000000000000   1.0000000
B2   B   0.777812311081820   0.722235488411822   0.875000000000000   1.0000000
B2   B   0.611135950093407   0.222235680686802   0.875000000000000   1.0000000
B2   B   0.944477917123002   0.222242976359325   0.875000000000000   1.0000000
B2   B   0.275180383515382   0.721611039577550   0.375000000000000   1.0000000
B2   B   0.115234917946439   0.224284125639887   0.375000000000000   1.0000000
B2   B   0.443857882124111   0.216743551470088   0.375000000000000   1.0000000
B2   B   0.611701117378516   0.728725529057954   0.375000000000000   1.0000000
B2   B   0.939813750980891   0.719451914445708   0.375000000000000   1.0000000
B2   B   0.778797349699906   0.221560498726585   0.375000000000000   1.0000000
B2   B   0.111140367407610   0.888901109594720   0.875000000000000   1.0000000
B2   B   0.444463705196044   0.888898519264690   0.875000000000000   1.0000000
B2   B   0.277808740951328   0.388908500539064   0.875000000000000   1.0000000
B2   B   0.611145190706399   0.388899786995059   0.875000000000000   1.0000000
B2   B   0.777812153681773   0.888909328067449   0.875000000000000   1.0000000
B2   B   0.944471782766888   0.388902766898659   0.875000000000000   1.0000000
B2   B   0.112916968924438   0.389743752346220   0.375000000000000   1.0000000
B2   B   0.275180383515382   0.886902677271162   0.375000000000000   1.0000000
B2   B   0.611392118146478   0.891045874639805   0.375000000000000   1.0000000
B2   B   0.943742193740672   0.888602062121968   0.375000000000000   1.0000000
B2   B   0.773884065207641   0.386237575685181   0.375000000000000   1.0000000
B2   B   0.277798211177332   0.555564444815042   0.875000000000000   1.0000000
B2   B   0.111142562123970   0.055574958236526   0.875000000000000   1.0000000
B2   B   0.611145190706399   0.555578737044663   0.875000000000000   1.0000000
B2   B   0.444474830763618   0.055567537155347   0.875000000000000   1.0000000
B2   B   0.944478341623892   0.555568132545665   0.875000000000000   1.0000000
B2   B   0.108517499335985   0.554643845149405   0.375000000000000   1.0000000
B2   B   0.777803483916893   0.055568408625116   0.875000000000000   1.0000000
B2   B   0.276745543688609   0.053712186588556   0.375000000000000   1.0000000
B2   B   0.443857882124111   0.560447663987353   0.375000000000000   1.0000000
B2   B   0.769900822658313   0.551617077995822   0.375000000000000   1.0000000
B2   B   0.611392118146478   0.053679576839998   0.375000000000000   1.0000000
B2   B   0.444473853601483   0.555567028446758   0.875000000000000   1.0000000
B2   B   0.946589003286887   0.057036641907194   0.375000000000000   1.0000000
B2   B   0.277806408033285   0.722231720712397   0.875000000000000   1.0000000
B2   B   0.111136251994676   0.222234792664005   0.875000000000000   1.0000000
B2   B   0.444473853601483   0.222240158488058   0.875000000000000   1.0000000
B2   B   0.611135950093407   0.722233602739938   0.875000000000000   1.0000000
B2   B   0.944478341623892   0.722243542411566   0.875000000000000   1.0000000
B2   B   0.777812153681773   0.222236158947656   0.875000000000000   1.0000000
B2   B   0.107671638478555   0.720502485905941   0.375000000000000   1.0000000
B2   B   0.443213835401253   0.724008565805990   0.375000000000000   1.0000000
B2   B   0.283944419525584   0.225987786895552   0.375000000000000   1.0000000
B2   B   0.773884065207641   0.720979822855781   0.375000000000000   1.0000000
B2   B   0.611701117378516   0.216308921653888   0.375000000000000   1.0000000
B2   B   0.946589003286887   0.222885694713035   0.375000000000000   1.0000000
B2   B   0.111142562123970   0.388900937220773   0.875000000000000   1.0000000
B2   B   0.277806408033285   0.888908020654223   0.875000000000000   1.0000000
B2   B   0.611140046400419   0.888899444237129   0.875000000000000   1.0000000
B2   B   0.444464627122676   0.388898980228003   0.875000000000000   1.0000000
B2   B   0.944471782766888   0.888902349201556   0.875000000000000   1.0000000
B2   B   0.108517499335985   0.887206987519915   0.375000000000000   1.0000000
B2   B   0.777812311081820   0.388910156003343   0.875000000000000   1.0000000
B2   B   0.443301167033120   0.888317250183233   0.375000000000000   1.0000000
B2   B   0.283944419525584   0.391289965963363   0.375000000000000   1.0000000
B2   B   0.276745543688609   0.556366690433384   0.375000000000000   1.0000000
B2   B   0.602007989345382   0.375752629723175   0.375000000000000   1.0000000
B2   B   0.778797349699906   0.890570184306638   0.375000000000000   1.0000000
B2   B   0.943742193740672   0.388473464952034   0.375000000000000   1.0000000
B2   B   0.111140367407610   0.555572591146227   0.875000000000000   1.0000000
B2   B   0.277798211177332   0.055567099695629   0.875000000000000   1.0000000
B2   B   0.777807705264858   0.555570519299103   0.875000000000000   1.0000000
B2   B   0.611140046400419   0.055573935496625   0.875000000000000   1.0000000
B2   B   0.944477917123002   0.055568274097013   0.875000000000000   1.0000000
B2   B   0.055588219176065   0.111125066188278   0.123342691515939   1.0000000
B2   B   0.555570430313022   0.611138166704731   0.122423562740968   1.0000000
B2   B   0.388903160541139   0.111105429316598   0.123054503107579   1.0000000
B2   B   0.888888530276360   0.611110931804859   0.123326701954808   1.0000000
B2   B   0.722254766993960   0.111122188601240   0.123191526775582   1.0000000
B2   B   0.055559299193535   0.777779630776807   0.626612941712107   1.0000000
B2   B   0.388901136996311   0.777790151713822   0.626741139345023   1.0000000
B2   B   0.222263196544826   0.277798264939081   0.626926294752640   1.0000000
B2   B   0.722243150655089   0.777795860022027   0.626906641505723   1.0000000
B2   B   0.555570430313022   0.277765596941634   0.627576437259030   1.0000000
B2   B   0.888918606788066   0.277793324061610   0.626670946483973   1.0000000
B2   B   0.222227756487934   0.777780544910632   0.123303512410328   1.0000000
B2   B   0.055588219176065   0.277796486321114   0.123342691515939   1.0000000
B2   B   0.388889049481359   0.277758217119845   0.122469592128103   1.0000000
B2   B   0.555577781471773   0.777802685950637   0.123108352116865   1.0000000
B2   B   0.888899624087966   0.777783015232766   0.123352204223547   1.0000000
B2   B   0.722243150655089   0.277780623966387   0.123093358494269   1.0000000
B2   B   0.055570623263849   0.944450106887615   0.626568763849965   1.0000000
B2   B   0.388901136996312   0.944444318615823   0.626741139345023   1.0000000
B2   B   0.222244268368229   0.444458196595236   0.626802543390426   1.0000000
B2   B   0.555587378544689   0.444460355939005   0.628143020724272   1.0000000
B2   B   0.722254766993960   0.944465911726053   0.626808473224411   1.0000000
B2   B   0.888899624087966   0.444449942188536   0.626647795776459   1.0000000
B2   B   0.055570623263849   0.444453849709573   0.123431236150034   1.0000000
B2   B   0.222230503253184   0.944444231716330   0.123298991808529   1.0000000
B2   B   0.555579292427109   0.944456312880214   0.123251926323934   1.0000000
B2   B   0.388889049481359   0.444464165694853   0.122469592128103   1.0000000
B2   B   0.888918606788066   0.944458616059781   0.123329053516027   1.0000000
B2   B   0.722225931571587   0.444439893411731   0.122661488925244   1.0000000
B2   B   0.222230503253184   0.611119604870194   0.626701008191475   1.0000000
B2   B   0.055588219176065   0.111125066188278   0.626657308484064   1.0000000
B2   B   0.555570430313022   0.611138166704731   0.627576437259030   1.0000000
B2   B   0.388903160541139   0.111105429316598   0.626945496892421   1.0000000
B2   B   0.888888530276360   0.611110931804859   0.626673298045188   1.0000000
B2   B   0.055559299193535   0.611113001750049   0.123387058287895   1.0000000
B2   B   0.722254766993960   0.111122188601240   0.626808473224411   1.0000000
B2   B   0.222244268368229   0.111119405106330   0.123197456609572   1.0000000
B2   B   0.388903160541139   0.611131064557886   0.123054503107579   1.0000000
B2   B   0.722225931571587   0.611119371493189   0.122661488925244   1.0000000
B2   B   0.555577781471773   0.111108428854484   0.123108352116865   1.0000000
B2   B   0.388903160541139   0.611131064557886   0.626945496892421   1.0000000
B2   B   0.888928192787796   0.111130763060570   0.123282762642616   1.0000000
B2   B   0.222227756487934   0.777780544910632   0.626696487589672   1.0000000
B2   B   0.055588219176065   0.277796486321114   0.626657308484064   1.0000000
B2   B   0.388889049481359   0.277758217119845   0.627530407871902   1.0000000
B2   B   0.555577781471773   0.777802685950637   0.626891647883144   1.0000000
B2   B   0.888899624087966   0.777783015232766   0.626647795776459   1.0000000
B2   B   0.722243150655089   0.277780623966387   0.626906641505723   1.0000000
B2   B   0.055559299193535   0.777779630776807   0.123387058287895   1.0000000
B2   B   0.388901136996312   0.777790151713822   0.123258860654973   1.0000000
B2   B   0.222263196544826   0.277798264939081   0.123073705247361   1.0000000
B2   B   0.722243150655089   0.777795860022027   0.123093358494269   1.0000000
B2   B   0.555570430313022   0.277765596941634   0.122423562740968   1.0000000
B2   B   0.888918606788066   0.277793324061610   0.123329053516027   1.0000000
B2   B   0.055570623263849   0.444453849709573   0.626568763849965   1.0000000
B2   B   0.222230503253184   0.944444231716330   0.626701008191475   1.0000000
B2   B   0.555579292427109   0.944456312880214   0.626748073676061   1.0000000
B2   B   0.388889049481359   0.444464165694853   0.627530407871902   1.0000000
B2   B   0.888918606788066   0.944458616059781   0.626670946483973   1.0000000
B2   B   0.055570623263849   0.944450106887615   0.123431236150034   1.0000000
B2   B   0.722225931571587   0.444439893411731   0.627338511074749   1.0000000
B2   B   0.388901136996312   0.944444318615823   0.123258860654973   1.0000000
B2   B   0.222244268368229   0.444458196595236   0.123197456609572   1.0000000
B2   B   0.222230503253184   0.611119604870194   0.123298991808529   1.0000000
B2   B   0.555587378544689   0.444460355939005   0.121856979275719   1.0000000
B2   B   0.722254766993960   0.944465911726053   0.123191526775582   1.0000000
B2   B   0.888899624087966   0.444449942188536   0.123352204223547   1.0000000
B2   B   0.055559299193535   0.611113001750049   0.626612941712107   1.0000000
B2   B   0.222244268368229   0.111119405106330   0.626802543390426   1.0000000
B2   B   0.722225931571587   0.611119371493189   0.627338511074749   1.0000000
B2   B   0.555577781471773   0.111108428854484   0.626891647883144   1.0000000
B2   B   0.888928192787796   0.111130763060570   0.626717237357382   1.0000000


