data_1
_audit_creation_method   'vasp2cif'
_cell_length_a    17.52789999999977
_cell_length_b    17.52789999999977
_cell_length_c    15.0
_cell_angle_alpha    90.0
_cell_angle_beta    90.0
_cell_angle_gamma    119.99999999999916

_symmetry_space_group_name_H-M    'P 1'
loop_
_atom_site_label
_atom_site_type_symbol
_atom_site_fract_x
_atom_site_fract_y
_atom_site_fract_z
_atom_site_occupancy
B2   B   0.905976771875067   0.953328301437919   0.111021794702154   1.0000000
B2   B   0.904710016254702   0.095292004941295   0.111010153048229   1.0000000
B2   B   0.904282247624999   0.237855470658002   0.111035659932161   1.0000000
B2   B   0.904710016254702   0.380846705004403   0.111010153048229   1.0000000
B2   B   0.905976771875067   0.524078875685147   0.111021794702154   1.0000000
B2   B   0.905690770556892   0.667152240315203   0.111061566196944   1.0000000
B2   B   0.905690770556892   0.809968935489690   0.111061566196944   1.0000000
B2   B   0.047811043079814   0.952190978116188   0.111016592075424   1.0000000
B2   B   0.046673719758083   0.094025249320931   0.111021794702154   1.0000000
B2   B   0.045913614609088   0.236866045889831   0.111009875292777   1.0000000
B2   B   0.045913614609088   0.380477973966257   0.111009875292777   1.0000000
B2   B   0.046673719758083   0.524078875685147   0.111021794702154   1.0000000
B2   B   0.047811043079814   0.667052181767623   0.111016592075424   1.0000000
B2   B   0.047951116358125   0.809691616581065   0.110996493799004   1.0000000
B2   B   0.190310404614938   0.952050904837878   0.110996493799004   1.0000000
B2   B   0.190033085706313   0.094311250639104   0.111061566196944   1.0000000
B2   B   0.186759677600137   0.234274916901020   0.111066288108314   1.0000000
B2   B   0.186390666852475   0.378910536049738   0.111066568434825   1.0000000
B2   B   0.186759677600137   0.523915165947119   0.111066288108314   1.0000000
B2   B   0.190033085706313   0.667152240315203   0.111061566196944   1.0000000
B2   B   0.190310404614938   0.809691616581065   0.110996493799004   1.0000000
B2   B   0.332949839429375   0.952190978116188   0.111016592075424   1.0000000
B2   B   0.332849780881795   0.094311250639104   0.111061566196944   1.0000000
B2   B   0.332686167271961   0.236800718593925   0.111093894445621   1.0000000
B2   B   0.324844117472903   0.373561025388000   0.111047783694601   1.0000000
B2   B   0.324844117472903   0.522713497331902   0.111047783694601   1.0000000
B2   B   0.332686167271961   0.667315853925037   0.111093894445621   1.0000000
B2   B   0.332849780881795   0.809968935489690   0.111061566196944   1.0000000
B2   B   0.475923145511851   0.953328301437919   0.111021794702154   1.0000000
B2   B   0.475923145511851   0.094025249320931   0.111021794702154   1.0000000
B2   B   0.476086855249879   0.234274916901020   0.111066288108314   1.0000000
B2   B   0.477288523865096   0.373561025388000   0.111047783694601   1.0000000
B2   B   0.477288523865096   0.675157903724094   0.111047783694601   1.0000000
B2   B   0.476086855249879   0.813242343595867   0.111066288108314   1.0000000
B2   B   0.619524047229746   0.954088406586914   0.111009875292777   1.0000000
B2   B   0.619155316191599   0.095292004941295   0.111010153048229   1.0000000
B2   B   0.619524047229746   0.236866045889831   0.111009875292777   1.0000000
B2   B   0.621091485146265   0.378910536049738   0.111066568434825   1.0000000
B2   B   0.626440995808004   0.522713497331902   0.111047783694601   1.0000000
B2   B   0.626440995808004   0.675157903724094   0.111047783694601   1.0000000
B2   B   0.621091485146265   0.813611354343528   0.111066568434825   1.0000000
B2   B   0.763135975306172   0.954088406586914   0.111009875292777   1.0000000
B2   B   0.762146550538002   0.095719773570997   0.111035659932161   1.0000000
B2   B   0.762146550538002   0.237855470658002   0.111035659932161   1.0000000
B2   B   0.763135975306172   0.380477973966257   0.111009875292777   1.0000000
B2   B   0.765727104294984   0.523915165947119   0.111066288108314   1.0000000
B2   B   0.763201302602079   0.667315853925037   0.111093894445621   1.0000000
B2   B   0.765727104294984   0.813242343595867   0.111066288108314   1.0000000
N2   N   0.952907399172918   0.905049756584775   0.110999292812020   1.0000000
N2   N   0.952301855923220   0.047699545994786   0.110973352570712   1.0000000
N2   N   0.951440357841058   0.190012277992186   0.110985641028449   1.0000000
N2   N   0.951440357841058   0.332855061966870   0.110985641028449   1.0000000
N2   N   0.952301855923220   0.476029292046432   0.110973352570712   1.0000000
N2   N   0.952907399172918   0.619286336263138   0.110999292812020   1.0000000
N2   N   0.953013036515087   0.762220865095045   0.111009349979352   1.0000000
N2   N   0.095335959145879   0.904665442772120   0.110966346348344   1.0000000
N2   N   0.094951645333224   0.047094002745089   0.110999292812020   1.0000000
N2   N   0.092673671412735   0.188329319771525   0.110995314262581   1.0000000
N2   N   0.092280905017085   0.331854799345543   0.110989594533908   1.0000000
N2   N   0.092673671412735   0.475773045315211   0.110995314262581   1.0000000
N2   N   0.094951645333224   0.619286336263138   0.110999292812020   1.0000000
N2   N   0.095335959145879   0.762100921604763   0.110966346348344   1.0000000
N2   N   0.237900480313242   0.904665442772120   0.110966346348344   1.0000000
N2   N   0.237780536822960   0.046988365402919   0.111009349979352   1.0000000
N2   N   0.237160078292197   0.189218163079883   0.111043466425177   1.0000000
N2   N   0.231228257481977   0.327928960291433   0.111067401722140   1.0000000
N2   N   0.231228257481977   0.474727990864537   0.111067401722140   1.0000000
N2   N   0.237160078292197   0.619370608887309   0.111043466425177   1.0000000
N2   N   0.237780536822960   0.762220865095045   0.111009349979352   1.0000000
N2   N   0.380715065654861   0.905049756584775   0.110999292812020   1.0000000
N2   N   0.380715065654861   0.047094002745089   0.110999292812020   1.0000000
N2   N   0.380630793030689   0.189218163079883   0.111043466425177   1.0000000
N2   N   0.380452882772438   0.332333057301873   0.111062562540260   1.0000000
N2   N   0.357232812428980   0.464330753051487   0.110873137248601   1.0000000
N2   N   0.380452882772438   0.619548519145561   0.111062562540260   1.0000000
N2   N   0.380630793030689   0.762841323625809   0.111043466425177   1.0000000
N2   N   0.524228356601787   0.907327730505263   0.110995314262581   1.0000000
N2   N   0.523972109870564   0.047699545994786   0.110973352570712   1.0000000
N2   N   0.524228356601787   0.188329319771525   0.110995314262581   1.0000000
N2   N   0.525273411052459   0.327928960291433   0.111067401722140   1.0000000
N2   N   0.535670648865509   0.464330753051487   0.110873137248601   1.0000000
N2   N   0.535670648865509   0.642768589489018   0.110873137248601   1.0000000
N2   N   0.525273411052459   0.768773144436029   0.111067401722140   1.0000000
N2   N   0.668146602571454   0.907720496900913   0.110989594533908   1.0000000
N2   N   0.667146339950126   0.048561044076948   0.110985641028449   1.0000000
N2   N   0.667146339950126   0.190012277992186   0.110985641028449   1.0000000
N2   N   0.668146602571454   0.331854799345543   0.110989594533908   1.0000000
N2   N   0.672072441625564   0.474727990864537   0.111067401722140   1.0000000
N2   N   0.667668344615123   0.619548519145561   0.111062562540260   1.0000000
N2   N   0.672072441625564   0.768773144436029   0.111067401722140   1.0000000
N2   N   0.811672082146472   0.907327730505263   0.110995314262581   1.0000000
N2   N   0.809989123925813   0.048561044076948   0.110985641028449   1.0000000
N2   N   0.809525273905997   0.190476128012001   0.111005311172464   1.0000000
N2   N   0.809989123925813   0.332855061966870   0.110985641028449   1.0000000
N2   N   0.811672082146472   0.475773045315211   0.110995314262581   1.0000000
N2   N   0.810783238838115   0.619370608887309   0.111043466425177   1.0000000
N2   N   0.810783238838115   0.762841323625809   0.111043466425177   1.0000000
Se2   Se   0.476191212381998   0.523810808815000   0.110883028487266   1.0000000


