data_1
_audit_creation_method   'vasp2cif'
_cell_length_a    14.93631414619966
_cell_length_b    14.936314146199727
_cell_length_c    13.341276283792837
_cell_angle_alpha    90.0
_cell_angle_beta    90.0
_cell_angle_gamma    119.99999999999984

_symmetry_space_group_name_H-M    'P 1'
loop_
_atom_site_label
_atom_site_type_symbol
_atom_site_fract_x
_atom_site_fract_y
_atom_site_fract_z
_atom_site_occupancy
C2   C   0.393278801208232   0.436250584034079   0.375000000000000   1.0000000
C2   C   0.436997673683038   0.374630707131274   0.375000000000000   1.0000000
C2   C   0.546325807326955   0.400697097488124   0.375000000000000   1.0000000
N2   N   0.111090392690910   0.055469795065256   0.125040906374126   1.0000000
N2   N   0.611118261971673   0.555415774338863   0.125911341032377   1.0000000
N2   N   0.444461099651159   0.055507719824650   0.125360339353033   1.0000000
N2   N   0.944518949806817   0.555522263863882   0.125117602162989   1.0000000
N2   N   0.777738439738012   0.055487728721475   0.124980016149618   1.0000000
N2   N   0.111154776938533   0.722161172643623   0.625007632551584   1.0000000
N2   N   0.444438203598424   0.722097500582286   0.624537113734655   1.0000000
N2   N   0.277765301253269   0.222117132596398   0.625055368401267   1.0000000
N2   N   0.777785009955655   0.722139055577557   0.624494986751365   1.0000000
N2   N   0.611133226926633   0.222233509453904   0.624283737663387   1.0000000
N2   N   0.944455294630029   0.222159551931605   0.624985964446942   1.0000000
N2   N   0.277802945434966   0.722132324352052   0.125150254399676   1.0000000
N2   N   0.111111247170355   0.222127211913370   0.125128590986443   1.0000000
N2   N   0.444499428583534   0.222178443596485   0.125457253815968   1.0000000
N2   N   0.611090322509036   0.722092783386019   0.125623637713041   1.0000000
N2   N   0.944489472363263   0.722183465006714   0.125118724779499   1.0000000
N2   N   0.777796823364291   0.222196005663983   0.125224423981579   1.0000000
N2   N   0.111129197787240   0.888829221693439   0.625010362224476   1.0000000
N2   N   0.444433155761744   0.888802941874779   0.624909191995932   1.0000000
N2   N   0.277836359776443   0.388785040742819   0.624680016055831   1.0000000
N2   N   0.611193008892323   0.388877539969664   0.625310125656005   1.0000000
N2   N   0.777737286344421   0.888794419340612   0.624908193603326   1.0000000
N2   N   0.944506216437245   0.388842833521913   0.624892710597615   1.0000000
N2   N   0.111160617700112   0.388815268640986   0.125260872726666   1.0000000
N2   N   0.277796366384824   0.888819086533296   0.125013666987461   1.0000000
N2   N   0.611072506328970   0.888795320257037   0.125110520413917   1.0000000
N2   N   0.444490719486670   0.388737062771860   0.123845854245087   1.0000000
N2   N   0.944436088148656   0.888818505337092   0.125017735398998   1.0000000
N2   N   0.777860243443030   0.388863018046214   0.125295776634997   1.0000000
N2   N   0.277823104577692   0.555448398752205   0.624442714985401   1.0000000
N2   N   0.111090392690910   0.055469795065256   0.624959093625860   1.0000000
N2   N   0.611118261971673   0.555415774338863   0.624088658967609   1.0000000
N2   N   0.444461099651159   0.055507719824650   0.624639660646969   1.0000000
N2   N   0.944518949806817   0.555522263863882   0.624882397837022   1.0000000
N2   N   0.111168556025865   0.555490683594192   0.125154083953955   1.0000000
N2   N   0.777738439738012   0.055487728721475   0.625019983850396   1.0000000
N2   N   0.277788356718953   0.055484077882824   0.125140718033329   1.0000000
N2   N   0.444470348153039   0.555392308803243   0.125781850962309   1.0000000
N2   N   0.777849568448100   0.555546180738781   0.125371895771650   1.0000000
N2   N   0.611085210304092   0.055512556563772   0.125216505564303   1.0000000
N2   N   0.444470348153039   0.555392308803243   0.624218149037706   1.0000000
N2   N   0.944410622529585   0.055471103020738   0.124948620174182   1.0000000
N2   N   0.277802945434966   0.722132324352052   0.624849745600328   1.0000000
N2   N   0.111111247170355   0.222127211913370   0.624871409013491   1.0000000
N2   N   0.444499428583534   0.222178443596485   0.624542746183984   1.0000000
N2   N   0.611090322509036   0.722092783386019   0.624376362286941   1.0000000
N2   N   0.944489472363263   0.722183465006714   0.624881275220502   1.0000000
N2   N   0.777796823364291   0.222196005663983   0.624775576018437   1.0000000
N2   N   0.111154776938533   0.722161172643623   0.124992367448427   1.0000000
N2   N   0.444438203598424   0.722097500582286   0.125462886265382   1.0000000
N2   N   0.277765301253269   0.222117132596398   0.124944631598731   1.0000000
N2   N   0.777785009955655   0.722139055577557   0.125505013248630   1.0000000
N2   N   0.611133226926633   0.222233509453904   0.125716262336619   1.0000000
N2   N   0.944455294630029   0.222159551931605   0.125014035553052   1.0000000
N2   N   0.111160617700112   0.388815268640986   0.624739127273365   1.0000000
N2   N   0.277796366384824   0.888819086533296   0.624986333012553   1.0000000
N2   N   0.611072506328970   0.888795320257037   0.624889479586108   1.0000000
N2   N   0.444490719486670   0.388737062771860   0.626154145754875   1.0000000
N2   N   0.944436088148656   0.888818505337092   0.624982264601014   1.0000000
N2   N   0.111129197787240   0.888829221693439   0.124989637775531   1.0000000
N2   N   0.777860243443030   0.388863018046214   0.624704223364999   1.0000000
N2   N   0.444433155761744   0.888802941874779   0.125090808004040   1.0000000
N2   N   0.277836359776443   0.388785040742819   0.125319983944216   1.0000000
N2   N   0.277823104577693   0.555448398752205   0.125557285014583   1.0000000
N2   N   0.611193008892323   0.388877539969664   0.124689874344000   1.0000000
N2   N   0.777737286344421   0.888794419340612   0.125091806396633   1.0000000
N2   N   0.944506216437245   0.388842833521913   0.125107289402400   1.0000000
N2   N   0.111168556025865   0.555490683594192   0.624845916046015   1.0000000
N2   N   0.277788356718953   0.055484077882824   0.624859281966649   1.0000000
N2   N   0.777849568448100   0.555546180738781   0.624628104228338   1.0000000
N2   N   0.611085210304092   0.055512556563772   0.624783494435671   1.0000000
N2   N   0.944410622529585   0.055471103020738   0.625051379825814   1.0000000
N2   N   0.050973373545773   0.108793457478242   0.375000000000000   1.0000000
N2   N   0.560237952385560   0.605890704818056   0.375000000000000   1.0000000
N2   N   0.387552489721137   0.113674752295406   0.375000000000000   1.0000000
N2   N   0.894780451686409   0.614671841126037   0.375000000000000   1.0000000
N2   N   0.720570354487253   0.114104374266745   0.375000000000000   1.0000000
N2   N   0.055489923072868   0.777741516093669   0.875000000000000   1.0000000
N2   N   0.388827491695589   0.777749590722725   0.875000000000000   1.0000000
N2   N   0.222165412670908   0.277752803696781   0.875000000000000   1.0000000
N2   N   0.722163765582760   0.777748746641982   0.875000000000000   1.0000000
N2   N   0.555490662957706   0.277746089987680   0.875000000000000   1.0000000
N2   N   0.888828805910495   0.277747429603881   0.875000000000000   1.0000000
N2   N   0.225649486315124   0.779646716759372   0.375000000000000   1.0000000
N2   N   0.052440241714627   0.277218414473927   0.375000000000000   1.0000000
N2   N   0.376074009484783   0.270313240286296   0.375000000000000   1.0000000
N2   N   0.557223720442364   0.777078187540541   0.375000000000000   1.0000000
N2   N   0.888967588157134   0.777316823991601   0.375000000000000   1.0000000
N2   N   0.720916454671864   0.282441315269096   0.375000000000000   1.0000000
N2   N   0.055497422020982   0.944416010250335   0.875000000000000   1.0000000
N2   N   0.388829859288625   0.944417511815658   0.875000000000000   1.0000000
N2   N   0.222156109186826   0.444415146823913   0.875000000000000   1.0000000
N2   N   0.555498298416810   0.444428770056241   0.875000000000000   1.0000000
N2   N   0.722166690644603   0.944418554119128   0.875000000000000   1.0000000
N2   N   0.888826138869072   0.444410886875568   0.875000000000000   1.0000000
N2   N   0.057779133571104   0.445445148029442   0.375000000000000   1.0000000
N2   N   0.222697529334747   0.945292216409741   0.375000000000000   1.0000000
N2   N   0.556328716432479   0.948779094974945   0.375000000000000   1.0000000
N2   N   0.886748865041446   0.943570448333813   0.375000000000000   1.0000000
N2   N   0.740252167031027   0.454941333715188   0.375000000000000   1.0000000
N2   N   0.222156731414777   0.611074311648767   0.875000000000000   1.0000000
N2   N   0.055493550390566   0.111076728201268   0.875000000000000   1.0000000
N2   N   0.555496683519913   0.611090692967481   0.875000000000000   1.0000000
N2   N   0.388829148187057   0.111081827790467   0.875000000000000   1.0000000
N2   N   0.888827160028554   0.611076746845145   0.875000000000000   1.0000000
N2   N   0.060191368272839   0.613235595079076   0.375000000000000   1.0000000
N2   N   0.722158446753842   0.111077599232150   0.875000000000000   1.0000000
N2   N   0.216692109880241   0.107536937684654   0.375000000000000   1.0000000
N2   N   0.393023089646127   0.609675095510173   0.375000000000000   1.0000000
N2   N   0.723646912191023   0.609725343226442   0.375000000000000   1.0000000
N2   N   0.555688861086285   0.122925154129380   0.375000000000000   1.0000000
N2   N   0.388829609417478   0.611078175550810   0.875000000000000   1.0000000
N2   N   0.886013955796488   0.111219455046466   0.375000000000000   1.0000000
N2   N   0.222161770350511   0.777744688007524   0.875000000000000   1.0000000
N2   N   0.055493828480197   0.277743045231308   0.875000000000000   1.0000000
N2   N   0.388828379158539   0.277749665037255   0.875000000000000   1.0000000
N2   N   0.555494296767011   0.777748570675357   0.875000000000000   1.0000000
N2   N   0.888831016967739   0.777751087827789   0.875000000000000   1.0000000
N2   N   0.722157521745645   0.277741282296145   0.875000000000000   1.0000000
N2   N   0.058265102894753   0.779293288128942   0.375000000000000   1.0000000
N2   N   0.391846237691201   0.779213784962686   0.375000000000000   1.0000000
N2   N   0.214806803483519   0.273638452427212   0.375000000000000   1.0000000
N2   N   0.722779272388342   0.777287569930612   0.375000000000000   1.0000000
N2   N   0.547739878321953   0.306388191543391   0.375000000000000   1.0000000
N2   N   0.887302754409372   0.279206146240453   0.375000000000000   1.0000000
N2   N   0.055491664373459   0.444411533472281   0.875000000000000   1.0000000
N2   N   0.222158285502460   0.944410333979777   0.875000000000000   1.0000000
N2   N   0.555495523949213   0.944411490266958   0.875000000000000   1.0000000
N2   N   0.388830016768487   0.444425335502840   0.875000000000000   1.0000000
N2   N   0.888828715389875   0.944411209582737   0.875000000000000   1.0000000
N2   N   0.053376945983900   0.942827449909111   0.375000000000000   1.0000000
N2   N   0.722165378075352   0.444417347593152   0.875000000000000   1.0000000
N2   N   0.391025894516110   0.948322128822359   0.375000000000000   1.0000000
N2   N   0.222869396571916   0.442856309883564   0.375000000000000   1.0000000
N2   N   0.226240781313068   0.611556096495448   0.375000000000000   1.0000000
N2   N   0.721131997462511   0.945226050977555   0.375000000000000   1.0000000
N2   N   0.893899907534775   0.447509472387725   0.375000000000000   1.0000000
N2   N   0.055492422858981   0.611076905102912   0.875000000000000   1.0000000
N2   N   0.222161229560110   0.111078080715782   0.875000000000000   1.0000000
N2   N   0.722154551786287   0.611081265186228   0.875000000000000   1.0000000
N2   N   0.555493509224366   0.111076790341443   0.875000000000000   1.0000000
N2   N   0.888832245111811   0.111078853115292   0.875000000000000   1.0000000
B2   B   0.106158196143829   0.052793841138410   0.375000000000000   1.0000000
B2   B   0.615416622444895   0.547862454217301   0.375000000000000   1.0000000
B2   B   0.444447532937134   0.059671547651912   0.375000000000000   1.0000000
B2   B   0.949621662401767   0.558452683358711   0.375000000000000   1.0000000
B2   B   0.775399184345045   0.056540270450396   0.375000000000000   1.0000000
B2   B   0.111124294482735   0.722358934147188   0.875000000000000   1.0000000
B2   B   0.444482337160543   0.722116779683134   0.875000000000000   1.0000000
B2   B   0.277539005544114   0.222091541812331   0.875000000000000   1.0000000
B2   B   0.777548918541771   0.722113134762730   0.875000000000000   1.0000000
B2   B   0.611141077409770   0.222356369057332   0.875000000000000   1.0000000
B2   B   0.944485812023606   0.222107438574621   0.875000000000000   1.0000000
B2   B   0.280851983043247   0.723257823481168   0.375000000000000   1.0000000
B2   B   0.104518122338545   0.219155908778759   0.375000000000000   1.0000000
B2   B   0.436324699405285   0.222728896841850   0.375000000000000   1.0000000
B2   B   0.612854842572231   0.719993297866557   0.375000000000000   1.0000000
B2   B   0.947819824447350   0.724806079272261   0.375000000000000   1.0000000
B2   B   0.776258909419579   0.224676725364589   0.375000000000000   1.0000000
B2   B   0.110868295777286   0.888751259083085   0.875000000000000   1.0000000
B2   B   0.444458462353966   0.889021267902084   0.875000000000000   1.0000000
B2   B   0.277805614152469   0.388790214962509   0.875000000000000   1.0000000
B2   B   0.610892992633038   0.388785878881864   0.875000000000000   1.0000000
B2   B   0.777821878541417   0.888782982044136   0.875000000000000   1.0000000
B2   B   0.944469439053293   0.389034108446335   0.875000000000000   1.0000000
B2   B   0.111310239421219   0.388468674542735   0.375000000000000   1.0000000
B2   B   0.279592428665202   0.890836684377623   0.375000000000000   1.0000000
B2   B   0.610704515929431   0.890053003180938   0.375000000000000   1.0000000
B2   B   0.942696380552394   0.888117798328170   0.375000000000000   1.0000000
B2   B   0.783369558538125   0.392042990334886   0.375000000000000   1.0000000
B2   B   0.277775608388094   0.555692080797536   0.875000000000000   1.0000000
B2   B   0.111136092816916   0.055432175646769   0.875000000000000   1.0000000
B2   B   0.611148183313833   0.555475677449602   0.875000000000000   1.0000000
B2   B   0.444195780671444   0.055409630892905   0.875000000000000   1.0000000
B2   B   0.944214576693938   0.555428757007934   0.875000000000000   1.0000000
B2   B   0.114832488918479   0.556727307079603   0.375000000000000   1.0000000
B2   B   0.777805330267649   0.055694258357249   0.875000000000000   1.0000000
B2   B   0.275321366009709   0.055467790782041   0.375000000000000   1.0000000
B2   B   0.450143629735148   0.555085555264583   0.375000000000000   1.0000000
B2   B   0.784594377324799   0.561054993993345   0.375000000000000   1.0000000
B2   B   0.610221830126129   0.061681136171431   0.375000000000000   1.0000000
B2   B   0.444212078794064   0.555441146928551   0.875000000000000   1.0000000
B2   B   0.940581687916589   0.054361638722772   0.375000000000000   1.0000000
B2   B   0.277530151930792   0.722084548769268   0.875000000000000   1.0000000
B2   B   0.111112980486772   0.222362226001803   0.875000000000000   1.0000000
B2   B   0.444453336372987   0.222105185242553   0.875000000000000   1.0000000
B2   B   0.611129259193652   0.722373528128203   0.875000000000000   1.0000000
B2   B   0.944488892018686   0.722111673920852   0.875000000000000   1.0000000
B2   B   0.777553349220275   0.222088030773020   0.875000000000000   1.0000000
B2   B   0.114623763323912   0.724193507379877   0.375000000000000   1.0000000
B2   B   0.446586669824910   0.722050192565696   0.375000000000000   1.0000000
B2   B   0.266826604281576   0.216538485367524   0.375000000000000   1.0000000
B2   B   0.778385137360281   0.722291845337436   0.375000000000000   1.0000000
B2   B   0.612118236708733   0.236475361738253   0.375000000000000   1.0000000
B2   B   0.941501018309766   0.222306896054194   0.375000000000000   1.0000000
B2   B   0.110872637214254   0.388761684641540   0.875000000000000   1.0000000
B2   B   0.277797354826253   0.888761144301284   0.875000000000000   1.0000000
B2   B   0.610879357456935   0.888757594769038   0.875000000000000   1.0000000
B2   B   0.444447432343797   0.389041846997966   0.875000000000000   1.0000000
B2   B   0.944465608692823   0.889037399112522   0.875000000000000   1.0000000
B2   B   0.111545978663422   0.889639706744096   0.375000000000000   1.0000000
B2   B   0.777833516114258   0.388789908362694   0.875000000000000   1.0000000
B2   B   0.445726170207045   0.891178800550174   0.375000000000000   1.0000000
B2   B   0.273614751473591   0.383193481128326   0.375000000000000   1.0000000
B2   B   0.280804571931471   0.554596857435000   0.375000000000000   1.0000000
B2   B   0.776419291746372   0.888874813809609   0.375000000000000   1.0000000
B2   B   0.947000512598335   0.390389353685306   0.375000000000000   1.0000000
B2   B   0.111144998898770   0.555440385134130   0.875000000000000   1.0000000
B2   B   0.277773958082754   0.055681770751214   0.875000000000000   1.0000000
B2   B   0.777812668952605   0.555707495663934   0.875000000000000   1.0000000
B2   B   0.611153283433285   0.055428515151075   0.875000000000000   1.0000000
B2   B   0.944206343845531   0.055422558833733   0.875000000000000   1.0000000
B2   B   0.055487380292937   0.110989412074288   0.125111358174833   1.0000000
B2   B   0.555563707311109   0.611062383217603   0.125722219517797   1.0000000
B2   B   0.388823574602907   0.110924532822417   0.125179628969225   1.0000000
B2   B   0.889035196300693   0.611101119134087   0.125241882470249   1.0000000
B2   B   0.722243755706243   0.111058311306327   0.125086817623736   1.0000000
B2   B   0.055621160722007   0.777723243296378   0.624925382500865   1.0000000
B2   B   0.388850384998963   0.777660923283066   0.624663329534414   1.0000000
B2   B   0.222148675743280   0.277635446851686   0.624984017473838   1.0000000
B2   B   0.722241361526995   0.777724365489040   0.624614285960373   1.0000000
B2   B   0.555663189953745   0.277831844941180   0.625236164177277   1.0000000
B2   B   0.888968410283740   0.277760673085374   0.624840547343386   1.0000000
B2   B   0.222233135866538   0.777665245048040   0.125103649011960   1.0000000
B2   B   0.055558883898625   0.277720268255074   0.125164254261073   1.0000000
B2   B   0.388799172408896   0.277664022926899   0.124436052961671   1.0000000
B2   B   0.555535234568253   0.777707499656748   0.125420159708353   1.0000000
B2   B   0.888957756670039   0.777740953205889   0.125261579880277   1.0000000
B2   B   0.722388783691144   0.277824277521091   0.125223356255761   1.0000000
B2   B   0.055539500729789   0.944330965941889   0.624936196272087   1.0000000
B2   B   0.388847249097046   0.944285384890704   0.624873752637968   1.0000000
B2   B   0.222207512182245   0.444367087324468   0.624498586830753   1.0000000
B2   B   0.555590899072430   0.444317938757102   0.625700971227716   1.0000000
B2   B   0.722182851347390   0.944360738996955   0.624876592931275   1.0000000
B2   B   0.889037237068302   0.444464236213428   0.624790640598775   1.0000000
B2   B   0.055630974137186   0.444402076662744   0.125238006690689   1.0000000
B2   B   0.222177827341030   0.944295232917652   0.125114861097651   1.0000000
B2   B   0.555519658251461   0.944326686239128   0.125142131194325   1.0000000
B2   B   0.388894434077983   0.444305433337710   0.124808631407046   1.0000000
B2   B   0.888882534361173   0.944377811157837   0.125050533204245   1.0000000
B2   B   0.722380266569087   0.444471969509393   0.125421045613581   1.0000000
B2   B   0.222242535977020   0.611051421916577   0.624642655510626   1.0000000
B2   B   0.055487380292937   0.110989412074288   0.624888641825164   1.0000000
B2   B   0.555563707311109   0.611062383217603   0.624277780482227   1.0000000
B2   B   0.388823574602907   0.110924532822417   0.624820371030774   1.0000000
B2   B   0.889035196300693   0.611101119134087   0.624758117529745   1.0000000
B2   B   0.055630654175832   0.611068192392968   0.125200218275213   1.0000000
B2   B   0.722243755706243   0.111058311306327   0.624913182376250   1.0000000
B2   B   0.222134416723413   0.110957290971701   0.125019274785804   1.0000000
B2   B   0.388869556830007   0.611029926360340   0.125638407315441   1.0000000
B2   B   0.722379082245272   0.611106354487253   0.125450266624592   1.0000000
B2   B   0.555540659307350   0.111003961918001   0.125340811382567   1.0000000
B2   B   0.388869556830007   0.611029926360340   0.624361592684516   1.0000000
B2   B   0.888884076291419   0.111035747013955   0.125017180246872   1.0000000
B2   B   0.222233135866538   0.777665245048040   0.624896350988061   1.0000000
B2   B   0.055558883898625   0.277720268255074   0.624835745738898   1.0000000
B2   B   0.388799172408896   0.277664022926899   0.625563947038333   1.0000000
B2   B   0.555535234568253   0.777707499656748   0.624579840291626   1.0000000
B2   B   0.888957756670039   0.777740953205889   0.624738420119739   1.0000000
B2   B   0.722388783691144   0.277824277521091   0.624776643744266   1.0000000
B2   B   0.055621160722007   0.777723243296378   0.125074617499161   1.0000000
B2   B   0.388850384998963   0.777660923283066   0.125336670465565   1.0000000
B2   B   0.222148675743280   0.277635446851686   0.125015982526170   1.0000000
B2   B   0.722241361526995   0.777724365489040   0.125385714039584   1.0000000
B2   B   0.555663189953745   0.277831844941180   0.124763835822742   1.0000000
B2   B   0.888968410283740   0.277760673085374   0.125159452656595   1.0000000
B2   B   0.055630974137186   0.444402076662744   0.624761993309326   1.0000000
B2   B   0.222177827341030   0.944295232917652   0.624885138902377   1.0000000
B2   B   0.555519658251461   0.944326686239128   0.624857868805659   1.0000000
B2   B   0.388894434077983   0.444305433337710   0.625191368592981   1.0000000
B2   B   0.888882534361173   0.944377811157837   0.624949466795707   1.0000000
B2   B   0.055539500729789   0.944330965941889   0.125063803727928   1.0000000
B2   B   0.722380266569087   0.444471969509393   0.624578954386432   1.0000000
B2   B   0.388847249097046   0.944285384890704   0.125126247362043   1.0000000
B2   B   0.222207512182245   0.444367087324468   0.125501413169224   1.0000000
B2   B   0.222242535977020   0.611051421916577   0.125357344489390   1.0000000
B2   B   0.555590899072430   0.444317938757102   0.124299028772232   1.0000000
B2   B   0.722182851347391   0.944360738996955   0.125123407068716   1.0000000
B2   B   0.889037237068302   0.444464236213428   0.125209359401233   1.0000000
B2   B   0.055630654175832   0.611068192392968   0.624799781724843   1.0000000
B2   B   0.222134416723413   0.110957290971701   0.624980725214238   1.0000000
B2   B   0.722379082245272   0.611106354487253   0.624549733375377   1.0000000
B2   B   0.555540659307350   0.111003961918001   0.624659188617417   1.0000000
B2   B   0.888884076291419   0.111035747013955   0.624982819753168   1.0000000


