data_1
_audit_creation_method   'vasp2cif'
_cell_length_a    17.52789999999977
_cell_length_b    17.52789999999977
_cell_length_c    15.0
_cell_angle_alpha    90.0
_cell_angle_beta    90.0
_cell_angle_gamma    119.99999999999916

_symmetry_space_group_name_H-M    'P 1'
loop_
_atom_site_label
_atom_site_type_symbol
_atom_site_fract_x
_atom_site_fract_y
_atom_site_fract_z
_atom_site_occupancy
B2   B   0.904805451071399   0.951487149660250   0.111012451873792   1.0000000
B2   B   0.905940335331938   0.094591684694390   0.111076231705243   1.0000000
B2   B   0.906109010601019   0.237566611702198   0.111061942984658   1.0000000
B2   B   0.905849964443399   0.380821855867282   0.111020467564232   1.0000000
B2   B   0.904451047769329   0.523915193542438   0.110998131842271   1.0000000
B2   B   0.903380321440533   0.666308048101710   0.111061616583612   1.0000000
B2   B   0.902875879453703   0.808009863930352   0.111021375746505   1.0000000
B2   B   0.049067940127634   0.954403034130342   0.110987286774562   1.0000000
B2   B   0.050086973174635   0.096962273556022   0.111001046459523   1.0000000
B2   B   0.049463103033234   0.239028304125361   0.111036872859971   1.0000000
B2   B   0.047796145728826   0.381687648612692   0.111037243289184   1.0000000
B2   B   0.046462384480651   0.524823398314913   0.111013591609282   1.0000000
B2   B   0.046649289185491   0.667778956579200   0.111002355798507   1.0000000
B2   B   0.047238694954809   0.810691990278055   0.110974366388295   1.0000000
B2   B   0.191462179908090   0.954838963719935   0.110963562411138   1.0000000
B2   B   0.195958059264770   0.101187388896005   0.111019680725434   1.0000000
B2   B   0.194939770989512   0.242379542649682   0.111005359858392   1.0000000
B2   B   0.190633102838314   0.383859715190637   0.110988539062487   1.0000000
B2   B   0.187767001196724   0.525870637393447   0.111054349361271   1.0000000
B2   B   0.188969005724993   0.668565149571015   0.111081690667533   1.0000000
B2   B   0.190025712272982   0.811370010701722   0.111012309268998   1.0000000
B2   B   0.333736345796645   0.953994687149739   0.111026474039536   1.0000000
B2   B   0.335516390202928   0.097808509978679   0.111039161049455   1.0000000
B2   B   0.345659381467481   0.248392785322483   0.111063542915854   1.0000000
B2   B   0.335585551975999   0.390633872978601   0.111004799558216   1.0000000
B2   B   0.328247467377945   0.528926908041428   0.110978675926035   1.0000000
B2   B   0.331038971403996   0.669617838903677   0.111087034080562   1.0000000
B2   B   0.332601762125271   0.811356315125464   0.111108758948470   1.0000000
B2   B   0.476398700781232   0.951716834845107   0.111026092484649   1.0000000
B2   B   0.477568343103533   0.093884655863338   0.111019037552198   1.0000000
B2   B   0.479229543551446   0.235491946359527   0.110968211125717   1.0000000
B2   B   0.472613924821575   0.665906608207713   0.111003985385283   1.0000000
B2   B   0.475292131915152   0.809113206007600   0.111058294178099   1.0000000
B2   B   0.619174555070289   0.950481939103500   0.110996745236837   1.0000000
B2   B   0.620274014196546   0.093427103963847   0.111011797594649   1.0000000
B2   B   0.621703803404765   0.235903484825634   0.111024518779397   1.0000000
B2   B   0.624085501833089   0.378979180223085   0.110960205162596   1.0000000
B2   B   0.608810840916423   0.509229607114431   0.111079802814996   1.0000000
B2   B   0.613941983666858   0.659864768708677   0.111027037459774   1.0000000
B2   B   0.617568541595148   0.806598779104631   0.110987827131582   1.0000000
B2   B   0.761801594288634   0.950263130448447   0.111038232848025   1.0000000
B2   B   0.762905187782351   0.093666364571088   0.111070209338720   1.0000000
B2   B   0.763702703602881   0.236769123897577   0.111022858914097   1.0000000
B2   B   0.764476888714246   0.379989752350222   0.111021663919933   1.0000000
B2   B   0.761301371037338   0.522263511175228   0.111122165458668   1.0000000
B2   B   0.756039028892181   0.660610838968796   0.111074125138541   1.0000000
B2   B   0.759393880779272   0.805744948571281   0.111018034496034   1.0000000
C2   C   0.464406990889716   0.522642413380402   0.111359597319929   1.0000000
C2   C   0.490266077450468   0.445546254762580   0.111095967045398   1.0000000
N2   N   0.952609848847414   0.904479067725214   0.110989090338839   1.0000000
N2   N   0.954191823687326   0.047659945516463   0.111009082812464   1.0000000
N2   N   0.954306905443597   0.190310470840209   0.111050469026574   1.0000000
N2   N   0.953212025039049   0.333028583391115   0.111022089764983   1.0000000
N2   N   0.951822849943680   0.476241364698331   0.110974003330141   1.0000000
N2   N   0.951289278399979   0.619251504980765   0.110998220966890   1.0000000
N2   N   0.951376992972244   0.761718678086195   0.111011581750247   1.0000000
N2   N   0.096096847282465   0.906664047246315   0.110939938429570   1.0000000
N2   N   0.099499590740226   0.051510284853252   0.110983550452245   1.0000000
N2   N   0.099577132929345   0.193269081307332   0.110987587785059   1.0000000
N2   N   0.096341752477115   0.334436587036418   0.111003650838110   1.0000000
N2   N   0.093650982444144   0.476952112183164   0.111022634037805   1.0000000
N2   N   0.093996572355470   0.620170939818670   0.111007286497462   1.0000000
N2   N   0.094704328329144   0.763272221612253   0.110968958034371   1.0000000
N2   N   0.238496382843130   0.906967498490134   0.110973573028895   1.0000000
N2   N   0.240838597902515   0.051451618311466   0.110986824134454   1.0000000
N2   N   0.248565004045928   0.200690271560071   0.111024515849507   1.0000000
N2   N   0.242493860902744   0.338438576720504   0.110966868201649   1.0000000
N2   N   0.234957196456940   0.478270522028987   0.110990329955730   1.0000000
N2   N   0.236195309933115   0.620929243247134   0.111076616619209   1.0000000
N2   N   0.237383164868639   0.763748060409166   0.111068935603149   1.0000000
N2   N   0.381073577560809   0.906165641210172   0.111046937508660   1.0000000
N2   N   0.382238109521977   0.049482700378717   0.111005551318583   1.0000000
N2   N   0.385166963123802   0.195008709948817   0.111077401808098   1.0000000
N2   N   0.408119683809572   0.366008415526503   0.111071929126625   1.0000000
N2   N   0.375878135725824   0.483489837685525   0.110936997998130   1.0000000
N2   N   0.378297146489395   0.622264604535827   0.111028126569697   1.0000000
N2   N   0.380109937735898   0.763776396480524   0.111096058260747   1.0000000
N2   N   0.523812520157189   0.903779179718035   0.111001137108343   1.0000000
N2   N   0.524856399169888   0.046478332447132   0.110984433458897   1.0000000
N2   N   0.526560788002469   0.188328969064371   0.111015599009205   1.0000000
N2   N   0.533338578659850   0.325874050800742   0.110507761151999   1.0000000
N2   N   0.516706799049999   0.612480575183933   0.110988191553055   1.0000000
N2   N   0.522309866239373   0.760118224967154   0.110996982411147   1.0000000
N2   N   0.666151929504123   0.901896693806981   0.110978602941425   1.0000000
N2   N   0.667531778484663   0.045647590533908   0.111002378847796   1.0000000
N2   N   0.668645471119958   0.188467376059507   0.111001639213334   1.0000000
N2   N   0.670076995686153   0.330852762582134   0.111003545882174   1.0000000
N2   N   0.665038857095208   0.472570425900047   0.111112101581641   1.0000000
N2   N   0.657116387791679   0.607709229953841   0.111066300158215   1.0000000
N2   N   0.662618819489002   0.755702833460378   0.110981209035962   1.0000000
N2   N   0.808588837693684   0.901857703453637   0.111007324767610   1.0000000
N2   N   0.810389730264464   0.045909383503760   0.111063901848965   1.0000000
N2   N   0.811024567097446   0.189115789965310   0.111046036705665   1.0000000
N2   N   0.811204225623236   0.332223583237408   0.110998707949636   1.0000000
N2   N   0.809299272270294   0.475285189591517   0.111022120903852   1.0000000
N2   N   0.807093720849838   0.616867917335226   0.111089729472681   1.0000000
N2   N   0.805764256219618   0.757334856279341   0.111024003533357   1.0000000


