data_1
_audit_creation_method   'vasp2cif'
_cell_length_a    17.52789999999977
_cell_length_b    17.52789999999977
_cell_length_c    15.0
_cell_angle_alpha    90.0
_cell_angle_beta    90.0
_cell_angle_gamma    119.99999999999916

_symmetry_space_group_name_H-M    'P 1'
loop_
_atom_site_label
_atom_site_type_symbol
_atom_site_fract_x
_atom_site_fract_y
_atom_site_fract_z
_atom_site_occupancy
B2   B   0.904083588990743   0.952321507324888   0.110979262013753   1.0000000
B2   B   0.905743556412741   0.096135053939812   0.110988340597146   1.0000000
B2   B   0.905850880615809   0.238887576820672   0.111035876092082   1.0000000
B2   B   0.905565419374507   0.381543796101120   0.111001901646181   1.0000000
B2   B   0.904648740423980   0.524063414771315   0.110983247721924   1.0000000
B2   B   0.901553764298298   0.666033389041658   0.111036318137511   1.0000000
B2   B   0.901424501196423   0.807913604822801   0.111012854586367   1.0000000
B2   B   0.046495688515394   0.951745633797695   0.110954584665379   1.0000000
B2   B   0.048171499023310   0.095750804179976   0.110968469623426   1.0000000
B2   B   0.048736164811688   0.238954736754562   0.111029248869001   1.0000000
B2   B   0.048494239400323   0.381762528473207   0.111062730445694   1.0000000
B2   B   0.047739136289927   0.524375177583743   0.111025277291421   1.0000000
B2   B   0.046801431830364   0.666511431317717   0.110997531337822   1.0000000
B2   B   0.046019482652807   0.808747590926589   0.110945317127703   1.0000000
B2   B   0.189831133455285   0.951666682166069   0.110937239340878   1.0000000
B2   B   0.190719414314581   0.095388320685896   0.110978185684362   1.0000000
B2   B   0.192027143280465   0.239570461224413   0.110940991547592   1.0000000
B2   B   0.191490484298218   0.382013534708253   0.110957302308163   1.0000000
B2   B   0.190445948592857   0.524749209950432   0.111058737364898   1.0000000
B2   B   0.191592170298514   0.666691447599121   0.111042971227444   1.0000000
B2   B   0.190146161377879   0.808913249577911   0.110921753751905   1.0000000
B2   B   0.333294221013168   0.951409971108808   0.110974846883582   1.0000000
B2   B   0.333214128330365   0.094357387575519   0.111028260715701   1.0000000
B2   B   0.334606744121997   0.238783366605438   0.110973373981473   1.0000000
B2   B   0.336409432876638   0.383831930532875   0.110863205176341   1.0000000
B2   B   0.331664254080814   0.526215297164142   0.110999093923380   1.0000000
B2   B   0.337513202011391   0.666788010204740   0.111058378332471   1.0000000
B2   B   0.334160890715513   0.808817829798381   0.110981043186504   1.0000000
B2   B   0.476766155149362   0.951399136810115   0.110950536049406   1.0000000
B2   B   0.476396391047728   0.093526726064408   0.111008905392231   1.0000000
B2   B   0.476464995805175   0.234966655905800   0.110851346688651   1.0000000
B2   B   0.478719078287906   0.376775931245344   0.111511599482359   1.0000000
B2   B   0.488989830070717   0.665532526645525   0.110969169460707   1.0000000
B2   B   0.477921450993378   0.808684265435252   0.111029410335397   1.0000000
B2   B   0.619987662973816   0.953581186183978   0.110975907252762   1.0000000
B2   B   0.619728809458007   0.095261139602017   0.110960807262718   1.0000000
B2   B   0.619784019956096   0.237340131748247   0.110967228701585   1.0000000
B2   B   0.620149188161369   0.379785929566305   0.110899781371312   1.0000000
B2   B   0.617885737201473   0.521444584267408   0.111547233472077   1.0000000
B2   B   0.604269230531076   0.668190882136351   0.110877265661708   1.0000000
B2   B   0.620461208993723   0.812893525971251   0.111055179178524   1.0000000
B2   B   0.762744841717321   0.953814396193686   0.110971340323612   1.0000000
B2   B   0.762938040195549   0.096136449615109   0.110988435818048   1.0000000
B2   B   0.762865139293759   0.238466225652882   0.110993575210054   1.0000000
B2   B   0.762754801401106   0.381016924371781   0.110968068528796   1.0000000
B2   B   0.761711735137987   0.523585929572294   0.110951356037554   1.0000000
B2   B   0.753302181451692   0.664137149477148   0.111002935121715   1.0000000
B2   B   0.759125034405502   0.809090744910362   0.111000540695309   1.0000000
N2   N   0.951107306166881   0.903990566161408   0.110976580589714   1.0000000
N2   N   0.952935337523197   0.048113954920099   0.110947547324373   1.0000000
N2   N   0.953520742651786   0.191394680612411   0.111008546763549   1.0000000
N2   N   0.953219777736882   0.334041572793162   0.111019107498806   1.0000000
N2   N   0.952564523100297   0.476701229849281   0.110965235392365   1.0000000
N2   N   0.951030679875774   0.619174641570767   0.111002307474815   1.0000000
N2   N   0.950443853672122   0.761260311356992   0.111009701556025   1.0000000
N2   N   0.094354422407554   0.904166329118284   0.110903781744528   1.0000000
N2   N   0.095224270665732   0.047480911494676   0.110949802830669   1.0000000
N2   N   0.096354450714196   0.191260836123771   0.110976815968994   1.0000000
N2   N   0.095931948977866   0.333963334806355   0.111030766368586   1.0000000
N2   N   0.095109646707203   0.476865002742814   0.111061497846954   1.0000000
N2   N   0.095426836530966   0.619477110681895   0.111005004143607   1.0000000
N2   N   0.094477753412105   0.761680353290571   0.110923263363751   1.0000000
N2   N   0.237733464411889   0.904207807771144   0.110899870173709   1.0000000
N2   N   0.237842057528440   0.047045238407286   0.110982745638357   1.0000000
N2   N   0.238990740287816   0.190887629072185   0.110932934301371   1.0000000
N2   N   0.239702951236848   0.334744733038266   0.110849749745958   1.0000000
N2   N   0.236655433601982   0.476791517704322   0.110965343653876   1.0000000
N2   N   0.239992706238087   0.619743311190841   0.111082245782742   1.0000000
N2   N   0.238361520677497   0.761855956168700   0.110958582076565   1.0000000
N2   N   0.381240967031958   0.904272224789099   0.110936093311632   1.0000000
N2   N   0.380938841507995   0.046673681803294   0.111016154281161   1.0000000
N2   N   0.381164104731252   0.189446814280286   0.110955923560313   1.0000000
N2   N   0.383415048115422   0.334176742753421   0.111063961980121   1.0000000
N2   N   0.376014935973072   0.477370768389188   0.110929198197844   1.0000000
N2   N   0.386362587400157   0.620351771814124   0.110998335523614   1.0000000
N2   N   0.382252483904721   0.762116048984934   0.111008336219346   1.0000000
N2   N   0.524799666554681   0.904852855829150   0.110947538835726   1.0000000
N2   N   0.524368044075258   0.046786358739639   0.110956030108726   1.0000000
N2   N   0.524417086499020   0.188324436724208   0.110942096972626   1.0000000
N2   N   0.524920545009394   0.328842572776910   0.110773870784484   1.0000000
N2   N   0.526328539247106   0.762943191309816   0.111077257186799   1.0000000
N2   N   0.668388614105421   0.907906949153318   0.110994610346396   1.0000000
N2   N   0.667821466429782   0.048849246791719   0.110940828078984   1.0000000
N2   N   0.667640805152164   0.190447721524093   0.110976240981066   1.0000000
N2   N   0.667749640233172   0.332473069942317   0.110944650862978   1.0000000
N2   N   0.667604847523004   0.475105473452239   0.110889693062666   1.0000000
N2   N   0.655860015117383   0.616073514295003   0.111066482115005   1.0000000
N2   N   0.665295497110594   0.763910685353976   0.110975653657045   1.0000000
N2   N   0.809309383271439   0.905359827495546   0.110979778835562   1.0000000
N2   N   0.810902566405755   0.049183768616043   0.110944651681383   1.0000000
N2   N   0.810705501552568   0.191366360382630   0.110986487359753   1.0000000
N2   N   0.810452924461600   0.333634285370633   0.110969770524726   1.0000000
N2   N   0.809820650323289   0.476161904347084   0.110961321778660   1.0000000
N2   N   0.805637258824457   0.618519904887229   0.111019275137575   1.0000000
N2   N   0.805998946601148   0.760313078655168   0.110980588519068   1.0000000
O2   O   0.464834858665592   0.536655858531067   0.112237166814149   1.0000000
O2   O   0.529638162328720   0.464496044184681   0.112803761096657   1.0000000


