data_1
_audit_creation_method   'vasp2cif'
_cell_length_a    17.52789999999977
_cell_length_b    17.52789999999977
_cell_length_c    15.0
_cell_angle_alpha    90.0
_cell_angle_beta    90.0
_cell_angle_gamma    119.99999999999916

_symmetry_space_group_name_H-M    'P 1'
loop_
_atom_site_label
_atom_site_type_symbol
_atom_site_fract_x
_atom_site_fract_y
_atom_site_fract_z
_atom_site_occupancy
B2   B   0.905327905150769   0.952774874579916   0.111016246345993   1.0000000
B2   B   0.904784874664130   0.095234602779181   0.111053925519407   1.0000000
B2   B   0.904692615642702   0.238068555883327   0.111063221306287   1.0000000
B2   B   0.904774583707953   0.380982153512663   0.111007911615563   1.0000000
B2   B   0.905336905458847   0.523985582330809   0.111013962371249   1.0000000
B2   B   0.906270830211914   0.667241242772014   0.111092151227183   1.0000000
B2   B   0.906259220327930   0.810461439321906   0.111067588610540   1.0000000
B2   B   0.047878864449571   0.952379936933470   0.111021406585228   1.0000000
B2   B   0.047555505936731   0.095051980228973   0.111016849324120   1.0000000
B2   B   0.047490004037016   0.237890792886345   0.111006604200263   1.0000000
B2   B   0.047475296627030   0.381020436804501   0.111027600161922   1.0000000
B2   B   0.047556153991004   0.523921721526619   0.111020718029495   1.0000000
B2   B   0.047904846794536   0.666948193942650   0.111037326489692   1.0000000
B2   B   0.048211790623918   0.809829989717810   0.111019888889860   1.0000000
B2   B   0.190384557846784   0.952083919408320   0.111012674575459   1.0000000
B2   B   0.189692869646044   0.094030799861708   0.111066217407120   1.0000000
B2   B   0.189968245326062   0.237161126067658   0.111024748104871   1.0000000
B2   B   0.190244007666739   0.380821098371033   0.111030185562382   1.0000000
B2   B   0.189972194900374   0.524222551326947   0.111075405624748   1.0000000
B2   B   0.189698941046899   0.667073302696013   0.111082655547681   1.0000000
B2   B   0.190398771664057   0.809729547026608   0.111004367211604   1.0000000
B2   B   0.333101856319781   0.952257920843965   0.111036775623137   1.0000000
B2   B   0.332817006420888   0.094100688076232   0.111098653147402   1.0000000
B2   B   0.331414228278707   0.234974219196794   0.111045246719613   1.0000000
B2   B   0.332589995553715   0.377864974661242   0.111050950146058   1.0000000
B2   B   0.332590437082251   0.526120940909445   0.111041246577193   1.0000000
B2   B   0.331420020319526   0.667858611759021   0.111090629101846   1.0000000
B2   B   0.332826058570723   0.810139743915122   0.111076595957111   1.0000000
B2   B   0.475993981293411   0.952694017483299   0.111023821414990   1.0000000
B2   B   0.475995753394237   0.094730892805438   0.111023510486881   1.0000000
B2   B   0.475612887402776   0.236353364119643   0.111062984758159   1.0000000
B2   B   0.473102140443684   0.375758551963778   0.110997756486153   1.0000000
B2   B   0.473091274817173   0.668764886359440   0.110884437104398   1.0000000
B2   B   0.475610506694825   0.810695072545388   0.111050464626670   1.0000000
B2   B   0.618948186208105   0.952497345543359   0.111032028569617   1.0000000
B2   B   0.618981658274045   0.095215856329902   0.111011850144690   1.0000000
B2   B   0.618957334244852   0.237906391039672   0.111023718828255   1.0000000
B2   B   0.619206572520972   0.381014201820404   0.110999018567027   1.0000000
B2   B   0.622883055953089   0.526479031599996   0.110967250448194   1.0000000
B2   B   0.622869581766882   0.667844514273127   0.110894861856210   1.0000000
B2   B   0.619211313761780   0.809637448760387   0.110978989822726   1.0000000
B2   B   0.762134329641265   0.952499690495493   0.111019396354266   1.0000000
B2   B   0.761882205540800   0.095239730711258   0.111067843537184   1.0000000
B2   B   0.761880017578692   0.238093639627512   0.111067078093113   1.0000000
B2   B   0.762127169728268   0.381061605863066   0.111022015958002   1.0000000
B2   B   0.763270045797421   0.524236643018980   0.111054105838092   1.0000000
B2   B   0.765678597651190   0.668559311917682   0.111033585701174   1.0000000
B2   B   0.763265176274461   0.810473745286716   0.111022535278397   1.0000000
C2   C   0.472949757028544   0.522169835239783   0.110950386558227   1.0000000
C2   C   0.521042896451069   0.476279025544548   0.110969975820673   1.0000000
C2   C   0.521027150129872   0.616178536554233   0.110707535053089   1.0000000
N2   N   0.952957844589994   0.905242560513735   0.111012278903067   1.0000000
N2   N   0.952582996028469   0.047850682380560   0.111009597281227   1.0000000
N2   N   0.952562836232713   0.190606097061660   0.111033789074594   1.0000000
N2   N   0.952554350757173   0.333393471693515   0.111017847365756   1.0000000
N2   N   0.952584103594464   0.476162145985366   0.110968132564797   1.0000000
N2   N   0.952973236265029   0.619155979353444   0.111029660439005   1.0000000
N2   N   0.953136653502804   0.762289044910028   0.111057822969787   1.0000000
N2   N   0.095425875182410   0.904844085546352   0.110984369086325   1.0000000
N2   N   0.095047813429885   0.047441419434438   0.111022324088995   1.0000000
N2   N   0.095361457383440   0.190575514702748   0.110981779028480   1.0000000
N2   N   0.095835165551423   0.333629973852574   0.110996144056735   1.0000000
N2   N   0.095360995840961   0.476208107724377   0.111024832378697   1.0000000
N2   N   0.095054554262490   0.619032608034869   0.111033219705368   1.0000000
N2   N   0.095436512912542   0.762026378828861   0.110996552570767   1.0000000
N2   N   0.238065713161815   0.904744046786117   0.110987653494398   1.0000000
N2   N   0.237833572802093   0.047203683449208   0.111057175868375   1.0000000
N2   N   0.237079322405254   0.189356221905923   0.111038192082106   1.0000000
N2   N   0.238811119821556   0.333621268572030   0.111018082164086   1.0000000
N2   N   0.238810758183131   0.476593674136637   0.111052515694842   1.0000000
N2   N   0.237082901768469   0.619137604203346   0.111088862403786   1.0000000
N2   N   0.237841274796295   0.762048094879848   0.111039731755787   1.0000000
N2   N   0.380831940860545   0.904952910996714   0.111027679287663   1.0000000
N2   N   0.380830137517241   0.047300316363323   0.111043030585986   1.0000000
N2   N   0.380411538051310   0.189371176470130   0.111070349728673   1.0000000
N2   N   0.378829319202477   0.330262689121819   0.111015753923093   1.0000000
N2   N   0.383411588675441   0.477402577854101   0.111016391147587   1.0000000
N2   N   0.378824934545470   0.619973116469896   0.111014519596552   1.0000000
N2   N   0.380414503441179   0.762463542390570   0.111071868111286   1.0000000
N2   N   0.523659932593960   0.905187049419293   0.111024176253716   1.0000000
N2   N   0.523788486593131   0.047611021801658   0.110974428128641   1.0000000
N2   N   0.523663980603582   0.189912450903299   0.111022674352598   1.0000000
N2   N   0.523016706128791   0.331869467645085   0.110992818930528   1.0000000
N2   N   0.523013579446628   0.762575843099357   0.110961943513423   1.0000000
N2   N   0.666488165074575   0.904366101249625   0.110999027316496   1.0000000
N2   N   0.666605126703393   0.047523445844286   0.111021422350115   1.0000000
N2   N   0.666606709604716   0.190532027490360   0.111024603318965   1.0000000
N2   N   0.666485150252797   0.333568110605585   0.110998912902948   1.0000000
N2   N   0.667594538464280   0.476874993168352   0.110991444929301   1.0000000
N2   N   0.670439537094807   0.620944175118455   0.110957284041228   1.0000000
N2   N   0.667590627167473   0.762162857621275   0.110971356977158   1.0000000
N2   N   0.810038248984401   0.905163289321666   0.111002119957500   1.0000000
N2   N   0.809519342644511   0.047577351942801   0.111038943369888   1.0000000
N2   N   0.809519995216755   0.190485267707435   0.111061978689216   1.0000000
N2   N   0.809515305753174   0.333382250793040   0.111024976949930   1.0000000
N2   N   0.810040433187313   0.476310991155107   0.111017018546020   1.0000000
N2   N   0.811095191680176   0.619526387993306   0.111062596219865   1.0000000
N2   N   0.811089607473412   0.763007503549470   0.111035214597394   1.0000000


