data_1
_audit_creation_method   'vasp2cif'
_cell_length_a    17.52789999999977
_cell_length_b    17.52789999999977
_cell_length_c    15.0
_cell_angle_alpha    90.0
_cell_angle_beta    90.0
_cell_angle_gamma    119.99999999999916

_symmetry_space_group_name_H-M    'P 1'
loop_
_atom_site_label
_atom_site_type_symbol
_atom_site_fract_x
_atom_site_fract_y
_atom_site_fract_z
_atom_site_occupancy
B2   B   0.905310087661216   0.953467429475151   0.110995134418920   1.0000000
B2   B   0.904136218922576   0.095865802273417   0.110991817467319   1.0000000
B2   B   0.903787993475750   0.238764268539433   0.111064965544636   1.0000000
B2   B   0.903814998756811   0.381630234314233   0.111000749481202   1.0000000
B2   B   0.904640850403881   0.524521430794981   0.110999925713158   1.0000000
B2   B   0.906503396395639   0.667828084841235   0.111083898093906   1.0000000
B2   B   0.907038887644716   0.811473697706446   0.111054455009346   1.0000000
B2   B   0.047765116023044   0.952236905172961   0.110991150701282   1.0000000
B2   B   0.046534591720856   0.094691933534780   0.110995134418920   1.0000000
B2   B   0.046330967810111   0.237967213739158   0.110997510252019   1.0000000
B2   B   0.046816546890157   0.381124765692665   0.111001774981151   1.0000000
B2   B   0.047816506260394   0.523868243362421   0.111002580345569   1.0000000
B2   B   0.048470902709698   0.666715132457499   0.111036820793083   1.0000000
B2   B   0.048575632059659   0.809653894054631   0.111014407924454   1.0000000
B2   B   0.190348127141383   0.951426389136350   0.111014407924454   1.0000000
B2   B   0.188528323489565   0.092963133551284   0.111054455009346   1.0000000
B2   B   0.187695381646553   0.235794468354985   0.110996186752122   1.0000000
B2   B   0.188976176209788   0.380116568045732   0.110976916968833   1.0000000
B2   B   0.191311342837157   0.523305210098810   0.111028978477173   1.0000000
B2   B   0.191268963811405   0.666149528280805   0.111070388911632   1.0000000
B2   B   0.191040267988504   0.808961753207498   0.111000802309378   1.0000000
B2   B   0.333286888739508   0.951531118486306   0.111036820793083   1.0000000
B2   B   0.332173936355763   0.093498624800365   0.111083898093906   1.0000000
B2   B   0.328618352174422   0.232827773428120   0.110976545837362   1.0000000
B2   B   0.328273016721062   0.376336824896325   0.110970893128474   1.0000000
B2   B   0.335162635262276   0.522457644821746   0.111072895540383   1.0000000
B2   B   0.334390730258498   0.665611290938494   0.111096388862440   1.0000000
B2   B   0.333852492916188   0.808733057384598   0.111070388911632   1.0000000
B2   B   0.476133777834573   0.952185514935611   0.111002580345569   1.0000000
B2   B   0.475480590402015   0.095361170792126   0.110999925713158   1.0000000
B2   B   0.474055429468437   0.237921899002282   0.111013897127787   1.0000000
B2   B   0.466006134396089   0.373645743517248   0.111066644482058   1.0000000
B2   B   0.477544376375241   0.664839385934717   0.111072895540383   1.0000000
B2   B   0.476696811098189   0.808690678358846   0.111028978477173   1.0000000
B2   B   0.618877255503344   0.953185474305844   0.111001774981151   1.0000000
B2   B   0.618371786881770   0.096187022439183   0.111000749481202   1.0000000
B2   B   0.617742857920300   0.239434397354986   0.111018495543403   1.0000000
B2   B   0.616992243162093   0.383009778033904   0.111048402721249   1.0000000
B2   B   0.626356277678759   0.533995886800909   0.111066644482058   1.0000000
B2   B   0.623665196299683   0.671729004475929   0.110970893128474   1.0000000
B2   B   0.619885453150271   0.811025844986218   0.110976916968833   1.0000000
B2   B   0.762034807456847   0.953671053385887   0.110997510252019   1.0000000
B2   B   0.761237752656573   0.096214027720247   0.111064965544636   1.0000000
B2   B   0.760816192057878   0.239185829138130   0.111073534709282   1.0000000
B2   B   0.760567623841011   0.382259163275706   0.111018495543403   1.0000000
B2   B   0.762080122193712   0.525946591728552   0.111013897127787   1.0000000
B2   B   0.767174247767892   0.671383669022582   0.110976545837362   1.0000000
B2   B   0.764207552841017   0.812306639549450   0.110996186752122   1.0000000
N2   N   0.953076754079260   0.905829790663633   0.110995103001668   1.0000000
N2   N   0.951841800683242   0.048159601234762   0.110969421347477   1.0000000
N2   N   0.951420021120207   0.191003078618559   0.111002309602609   1.0000000
N2   N   0.951511591376250   0.334007209477686   0.111002839810627   1.0000000
N2   N   0.952078332569685   0.476760724187648   0.110962748953686   1.0000000
N2   N   0.952989352025939   0.619521145318747   0.111034113875739   1.0000000
N2   N   0.953442387322691   0.762673212504146   0.111058009869460   1.0000000
N2   N   0.095434517186194   0.904566884731804   0.110964566515398   1.0000000
N2   N   0.094171611254368   0.046924647838745   0.110995103001668   1.0000000
N2   N   0.093515019196902   0.189741293506355   0.110982354121091   1.0000000
N2   N   0.094321541371549   0.333300910731932   0.110978683008365   1.0000000
N2   N   0.095802574107553   0.476261676631170   0.110988938743843   1.0000000
N2   N   0.095948002424183   0.618912088587688   0.111020899801975   1.0000000
N2   N   0.095887924709260   0.761737021335682   0.110984623143498   1.0000000
N2   N   0.238264380582324   0.904113477208741   0.110984623143498   1.0000000
N2   N   0.237328189413860   0.046559014595316   0.111058009869460   1.0000000
N2   N   0.234999651555831   0.187816244223994   0.111007378381542   1.0000000
N2   N   0.235188924840189   0.331165614777568   0.110941854582404   1.0000000
N2   N   0.239707477334694   0.475395221652556   0.110992317659235   1.0000000
N2   N   0.239293835721367   0.618328074592130   0.111067602758695   1.0000000
N2   N   0.238762930910224   0.761238471007779   0.111041646065447   1.0000000
N2   N   0.381089313330311   0.904053399493817   0.111020899801975   1.0000000
N2   N   0.380480256599261   0.047012049892063   0.111034113875739   1.0000000
N2   N   0.379237386020566   0.189137978642166   0.111019734288359   1.0000000
N2   N   0.374542976753163   0.327924465599108   0.110898153110413   1.0000000
N2   N   0.381852122879476   0.471429027948219   0.111070932026151   1.0000000
N2   N   0.382793607437139   0.617207794480858   0.111086408260831   1.0000000
N2   N   0.381673327325870   0.760707566196643   0.111067602758695   1.0000000
N2   N   0.523739725285823   0.904198827810450   0.110988938743843   1.0000000
N2   N   0.523240677729350   0.047923069348323   0.110962748953686   1.0000000
N2   N   0.522482704628761   0.191584730265350   0.110980724860587   1.0000000
N2   N   0.521012107403130   0.335798673604086   0.111039062129629   1.0000000
N2   N   0.528572373968771   0.618149279038517   0.111070932026151   1.0000000
N2   N   0.524606180264435   0.760293924583317   0.110992317659235   1.0000000
N2   N   0.666700491185070   0.905679860546444   0.110978683008365   1.0000000
N2   N   0.665994192439311   0.048489810541751   0.111002839810627   1.0000000
N2   N   0.665412381034147   0.191885242972655   0.111015521367600   1.0000000
N2   N   0.664469214182420   0.335532187734581   0.111001620567820   1.0000000
N2   N   0.664202728312904   0.478989294513862   0.111039062129629   1.0000000
N2   N   0.672076936317897   0.625458425164837   0.110898153110413   1.0000000
N2   N   0.668835787139425   0.764812477077822   0.110941854582404   1.0000000
N2   N   0.810260108411641   0.906486382721092   0.110982354121091   1.0000000
N2   N   0.808998323299435   0.048581380797798   0.111002309602609   1.0000000
N2   N   0.808484625980855   0.191516775937138   0.111076777538846   1.0000000
N2   N   0.808116158945343   0.334589020882844   0.111015521367600   1.0000000
N2   N   0.808416671652647   0.477518697288234   0.110980724860587   1.0000000
N2   N   0.810863423275838   0.620764015897433   0.111019734288359   1.0000000
N2   N   0.812185157694003   0.765001750362178   0.111007378381542   1.0000000
P2   P   0.492551766562998   0.507450254633989   0.111625675763533   1.0000000


