data_1
_audit_creation_method   'vasp2cif'
_cell_length_a    17.52789999999977
_cell_length_b    17.52789999999977
_cell_length_c    15.0
_cell_angle_alpha    90.0
_cell_angle_beta    90.0
_cell_angle_gamma    119.99999999999916

_symmetry_space_group_name_H-M    'P 1'
loop_
_atom_site_label
_atom_site_type_symbol
_atom_site_fract_x
_atom_site_fract_y
_atom_site_fract_z
_atom_site_occupancy
B2   B   0.904611963159872   0.952188380625487   0.111235831409195   1.0000000
B2   B   0.904843400656496   0.095158620539496   0.111108136303239   1.0000000
B2   B   0.904891441306859   0.238049662020333   0.110999337007054   1.0000000
B2   B   0.904814821485690   0.380882433621609   0.111093714817842   1.0000000
B2   B   0.904411770141505   0.523630638853395   0.111538377549556   1.0000000
B2   B   0.904311362717197   0.666398114503192   0.110956952366942   1.0000000
B2   B   0.904397855314199   0.809268549383391   0.111330399718553   1.0000000
B2   B   0.047581999173288   0.952420022022718   0.111269660318780   1.0000000
B2   B   0.047813640570519   0.095390058036127   0.111235831409195   1.0000000
B2   B   0.047837269752957   0.238166472330291   0.111160131043959   1.0000000
B2   B   0.047816902213787   0.380954775729700   0.111004464653889   1.0000000
B2   B   0.047645258334074   0.523751466565534   0.111052306353481   1.0000000
B2   B   0.047413048475592   0.666578329646459   0.111171007345484   1.0000000
B2   B   0.047445370503524   0.809480780924830   0.111130275250005   1.0000000
B2   B   0.190521240271176   0.952556650692477   0.111130275250005   1.0000000
B2   B   0.190733471812613   0.095604165881799   0.111330399718553   1.0000000
B2   B   0.191015561817741   0.238674014527097   0.111001714690068   1.0000000
B2   B   0.190777986419353   0.380994265155835   0.111112790167815   1.0000000
B2   B   0.190868933642278   0.523795873721588   0.110907295362341   1.0000000
B2   B   0.190409944430515   0.666650547714055   0.111113041386942   1.0000000
B2   B   0.190416160080171   0.809585861115835   0.111041547706652   1.0000000
B2   B   0.333423691550535   0.952588972720414   0.111171007345484   1.0000000
B2   B   0.333603906693802   0.095690658478800   0.110956952366942   1.0000000
B2   B   0.333811704739508   0.238748064830197   0.109148190579598   1.0000000
B2   B   0.334281946424657   0.381460180093591   0.110248554833341   1.0000000
B2   B   0.334057616646281   0.524100251850444   0.111399306866101   1.0000000
B2   B   0.333315414448776   0.666686606748217   0.111185324659789   1.0000000
B2   B   0.333351473482941   0.809592076765487   0.111113041386942   1.0000000
B2   B   0.476250554631467   0.952356762861932   0.111052306353481   1.0000000
B2   B   0.476371382343602   0.095590251054490   0.111538377549556   1.0000000
B2   B   0.476610371434866   0.238933486759025   0.111193708753168   1.0000000
B2   B   0.476141186899366   0.380426213038634   0.098956344744052   1.0000000
B2   B   0.475901769346555   0.665944404550712   0.111399306866101   1.0000000
B2   B   0.476206147475414   0.809133087553720   0.110907295362341   1.0000000
B2   B   0.619047245466307   0.952185118982215   0.111004464653889   1.0000000
B2   B   0.619119587574395   0.095187199710304   0.111093714817842   1.0000000
B2   B   0.619295214197123   0.238182114561361   0.112389388589080   1.0000000
B2   B   0.619231130729366   0.380770890466635   0.113255996714357   1.0000000
B2   B   0.619575808157371   0.523860834297634   0.098956344744052   1.0000000
B2   B   0.618541841102415   0.665720074772344   0.110248554833341   1.0000000
B2   B   0.619007756040166   0.809224034776647   0.111112790167815   1.0000000
B2   B   0.761835548865708   0.952164751443047   0.111160131043959   1.0000000
B2   B   0.761952359175672   0.095110579889140   0.110999337007054   1.0000000
B2   B   0.761998955292847   0.238003065903156   0.111254848128148   1.0000000
B2   B   0.761819906634643   0.380706806998883   0.112389388589080   1.0000000
B2   B   0.761068534436977   0.523391649762129   0.111193708753168   1.0000000
B2   B   0.761253956365802   0.666190316457491   0.109148190579598   1.0000000
B2   B   0.761328006668906   0.808986459378264   0.111001714690068   1.0000000
C2   C   0.474735960463966   0.525266060733034   0.117739999698022   1.0000000
N2   N   0.952222468359447   0.904592258509519   0.111341406046236   1.0000000
N2   N   0.952456587948243   0.047544813969764   0.111148905854803   1.0000000
N2   N   0.952569646478806   0.190453281996046   0.111075034093139   1.0000000
N2   N   0.952584353510741   0.333339800814240   0.110918925578746   1.0000000
N2   N   0.952348916124065   0.476164013198855   0.111143785067319   1.0000000
N2   N   0.952103702061788   0.618911903777426   0.111296776068372   1.0000000
N2   N   0.952083871692904   0.761715719223315   0.111226707279730   1.0000000
N2   N   0.095204515699290   0.904796886218705   0.111120162618805   1.0000000
N2   N   0.095409143408481   0.047778933558559   0.111341406046236   1.0000000
N2   N   0.095667193858777   0.190795761738023   0.111189021519493   1.0000000
N2   N   0.095575091035541   0.333449080834169   0.111158944359673   1.0000000
N2   N   0.095592323386509   0.476234323337188   0.110941866614426   1.0000000
N2   N   0.095187816506958   0.619014615373512   0.111117384694896   1.0000000
N2   N   0.095125048369863   0.761877913797766   0.111030979270363   1.0000000
N2   N   0.238123488120241   0.904876353548136   0.111030979270363   1.0000000
N2   N   0.238285682694689   0.047917530225105   0.111226707279730   1.0000000
N2   N   0.238571341375878   0.191049947202113   0.111055290310387   1.0000000
N2   N   0.239014178149460   0.334207685924098   0.111125971635238   1.0000000
N2   N   0.238980707413899   0.476228985346270   0.110783149721540   1.0000000
N2   N   0.238185654581951   0.619013356590406   0.111031657782663   1.0000000
N2   N   0.238085897590304   0.761915504327701   0.111120331125123   1.0000000
N2   N   0.380986786544484   0.904813585411042   0.111117384694896   1.0000000
N2   N   0.381089498140572   0.047897699856213   0.111296776068372   1.0000000
N2   N   0.381332165930383   0.191108693488166   0.110129713452743   1.0000000
N2   N   0.381719991623220   0.334397734553523   0.106017752638689   1.0000000
N2   N   0.383385854877646   0.477293330665054   0.112320141042182   1.0000000
N2   N   0.381025501541007   0.618975900376994   0.111544489949241   1.0000000
N2   N   0.380988045327597   0.761815747336053   0.111031657782663   1.0000000
N2   N   0.523767078579805   0.904409078531492   0.110941866614426   1.0000000
N2   N   0.523837388718141   0.047652485793936   0.111143785067319   1.0000000
N2   N   0.523977821478123   0.190971981584338   0.112181544933432   1.0000000
N2   N   0.524445674620517   0.334766282225167   0.110390890551500   1.0000000
N2   N   0.522708071251941   0.616615547040354   0.112320141042182   1.0000000
N2   N   0.523772416570725   0.761020694504103   0.110783149721540   1.0000000
N2   N   0.666552321082828   0.904426310882458   0.111158944359673   1.0000000
N2   N   0.666661601102758   0.047417048407265   0.110918925578746   1.0000000
N2   N   0.666767385958446   0.190359913186364   0.111377246186764   1.0000000
N2   N   0.666836003841636   0.333165398075357   0.113684069494280   1.0000000
N2   N   0.665235119691831   0.475555727296480   0.110390890551500   1.0000000
N2   N   0.665603667363473   0.618281410294783   0.106017752638689   1.0000000
N2   N   0.665793715992899   0.760987223768542   0.111125971635238   1.0000000
N2   N   0.809205640179976   0.904334208059219   0.111189021519493   1.0000000
N2   N   0.809548119921951   0.047431755439200   0.111075034093139   1.0000000
N2   N   0.809643358342186   0.190358043575812   0.110966844891698   1.0000000
N2   N   0.809641488731637   0.333234015958555   0.111377246186764   1.0000000
N2   N   0.809029420333664   0.476023580438871   0.112181544933432   1.0000000
N2   N   0.808892708429832   0.618669235987614   0.110129713452743   1.0000000
N2   N   0.808951454715885   0.761430060542131   0.111055290310387   1.0000000
O2   O   0.521589557463179   0.478411844453817   0.125525037865058   1.0000000


