data_1
_audit_creation_method   'vasp2cif'
_cell_length_a    17.52789999999977
_cell_length_b    17.52789999999977
_cell_length_c    15.0
_cell_angle_alpha    90.0
_cell_angle_beta    90.0
_cell_angle_gamma    119.99999999999916

_symmetry_space_group_name_H-M    'P 1'
loop_
_atom_site_label
_atom_site_type_symbol
_atom_site_fract_x
_atom_site_fract_y
_atom_site_fract_z
_atom_site_occupancy
B2   B   0.906477280013358   0.953223184897850   0.114476522907528   1.0000000
B2   B   0.904463296388559   0.094779106300046   0.113088746818160   1.0000000
B2   B   0.903871767345936   0.237563909242493   0.111166971656516   1.0000000
B2   B   0.903733861746635   0.380729819652805   0.110924453346570   1.0000000
B2   B   0.903960339786296   0.523947083865847   0.112468871016921   1.0000000
B2   B   0.905935188035900   0.667436034962093   0.114109613166305   1.0000000
B2   B   0.907913367650658   0.811125116933379   0.110645799061231   1.0000000
B2   B   0.049375380380398   0.953319115388189   0.111482047522037   1.0000000
B2   B   0.048202825757385   0.095534033285451   0.111720141108975   1.0000000
B2   B   0.046835409226373   0.237568479730613   0.111679631597326   1.0000000
B2   B   0.046374100061878   0.380302137741554   0.111651125293126   1.0000000
B2   B   0.046631859511934   0.523424748549128   0.111426096804085   1.0000000
B2   B   0.047771077778060   0.666761090681117   0.111910553398782   1.0000000
B2   B   0.049269202040963   0.810173064430432   0.111746957250842   1.0000000
B2   B   0.191753205446493   0.952874675299173   0.110696202704048   1.0000000
B2   B   0.191349943871089   0.095734653005489   0.111222298894735   1.0000000
B2   B   0.190218863299319   0.237981197412668   0.113378648049084   1.0000000
B2   B   0.188961068416734   0.379986143960667   0.115791330721691   1.0000000
B2   B   0.189143681731483   0.522977866580280   0.114236989156272   1.0000000
B2   B   0.189736414196080   0.666281581991990   0.111878519587254   1.0000000
B2   B   0.191336539230581   0.809638919667435   0.111074801317578   1.0000000
B2   B   0.334239624012189   0.952451161467579   0.110770002775529   1.0000000
B2   B   0.334206385206910   0.095732058986679   0.110746602421226   1.0000000
B2   B   0.333538393595740   0.238420374413797   0.112601340380644   1.0000000
B2   B   0.332082643256956   0.379993507544605   0.118388840408712   1.0000000
B2   B   0.331413711237851   0.522601344949660   0.118456260052114   1.0000000
B2   B   0.331365052638532   0.665658976830616   0.113118681628095   1.0000000
B2   B   0.333771653041047   0.809071159471226   0.110806465665223   1.0000000
B2   B   0.476706601025419   0.951562032332259   0.111387049720624   1.0000000
B2   B   0.476765754160270   0.095535453342304   0.111048145845468   1.0000000
B2   B   0.476576358320579   0.239409449247577   0.110495257143636   1.0000000
B2   B   0.475431917857205   0.382457233852129   0.109599414755595   1.0000000
B2   B   0.471723859505091   0.662811949000056   0.102842987496420   1.0000000
B2   B   0.476380356630077   0.807484368785843   0.108745266519174   1.0000000
B2   B   0.619079568576395   0.950197910395265   0.113161205588948   1.0000000
B2   B   0.619053773331080   0.094637385912393   0.112099134483360   1.0000000
B2   B   0.618988209354975   0.238945043435862   0.111107028401138   1.0000000
B2   B   0.618802664105026   0.383404373644843   0.110290414950967   1.0000000
B2   B   0.616717160519982   0.527813428735002   0.105145469814792   1.0000000
B2   B   0.618233973522273   0.805108845594812   0.107058210944522   1.0000000
B2   B   0.761933499714292   0.951343743237512   0.115486808887554   1.0000000
B2   B   0.761434698916729   0.094432717646855   0.113182745962331   1.0000000
B2   B   0.761273475392773   0.237949137533488   0.111325189160368   1.0000000
B2   B   0.761153504300089   0.381515330960249   0.111576741073707   1.0000000
B2   B   0.760958551988309   0.524906560571610   0.112756763868747   1.0000000
B2   B   0.765863335976929   0.669496764073638   0.108998111868664   1.0000000
B2   B   0.766632393305116   0.811460622671532   0.109527855673705   1.0000000
C2   C   0.472129524315138   0.521964370466755   0.116035165436587   1.0000000
N2   N   0.954419751782730   0.905966579906817   0.112353308616696   1.0000000
N2   N   0.953034788279378   0.048007682803464   0.113156937339411   1.0000000
N2   N   0.951607352415292   0.189929448294294   0.111399123029718   1.0000000
N2   N   0.951190322853061   0.332828556562018   0.110649888818502   1.0000000
N2   N   0.951304163568218   0.476002857631845   0.111285254990531   1.0000000
N2   N   0.952530669209764   0.619238016230458   0.113097661686525   1.0000000
N2   N   0.954249055852837   0.762669006472350   0.112496941811039   1.0000000
N2   N   0.096651310288222   0.905390190586691   0.110925523392525   1.0000000
N2   N   0.096258023163040   0.048282478550115   0.111195663322222   1.0000000
N2   N   0.095103374523574   0.190498559838484   0.111559055544033   1.0000000
N2   N   0.093938110238321   0.332592187688935   0.112538072605653   1.0000000
N2   N   0.093943670687392   0.475474234151266   0.112010607106835   1.0000000
N2   N   0.094591888790577   0.618701374040410   0.111374548422558   1.0000000
N2   N   0.096116238889123   0.762083405443500   0.111563630310318   1.0000000
N2   N   0.239050654159363   0.904973225063318   0.110706160895619   1.0000000
N2   N   0.239053059645652   0.048124598718855   0.110707158734187   1.0000000
N2   N   0.238369075657889   0.190796527300096   0.112361344414318   1.0000000
N2   N   0.237129106817681   0.332948762139661   0.116722550886485   1.0000000
N2   N   0.236399920486834   0.474827394405256   0.117292766969746   1.0000000
N2   N   0.236337356756196   0.618151556756028   0.113512667913279   1.0000000
N2   N   0.238368072775934   0.761654863341209   0.111186355050789   1.0000000
N2   N   0.381537187771030   0.904456499800275   0.110825815829779   1.0000000
N2   N   0.381658757976155   0.047870620505719   0.110742928983941   1.0000000
N2   N   0.381456504242760   0.191115262531556   0.110897705447057   1.0000000
N2   N   0.380537834353268   0.333455027045576   0.114332205454746   1.0000000
N2   N   0.379426826697552   0.474522797392824   0.122736514113162   1.0000000
N2   N   0.376909164418229   0.617244855919740   0.114876507561226   1.0000000
N2   N   0.380860328035503   0.761061906033910   0.110285122146959   1.0000000
N2   N   0.523983980287036   0.903107432400500   0.111351477622611   1.0000000
N2   N   0.524001142090265   0.047186226213355   0.111618756714868   1.0000000
N2   N   0.523925310177757   0.191248908570446   0.110809087803638   1.0000000
N2   N   0.523685873141162   0.335386306596284   0.109533275391244   1.0000000
N2   N   0.520823047659134   0.478572879959241   0.105718266825131   1.0000000
N2   N   0.504143248519341   0.605308473409485   0.089119293560949   1.0000000
N2   N   0.523489334622899   0.758735233190230   0.103930721858946   1.0000000
N2   N   0.666538863172698   0.901505462762799   0.114019165618824   1.0000000
N2   N   0.666298150912315   0.046117403539425   0.113286259520562   1.0000000
N2   N   0.666167047543181   0.190394723006194   0.111453610870216   1.0000000
N2   N   0.666027540023723   0.334723301845080   0.111198387354602   1.0000000
N2   N   0.665224528801412   0.479422068193352   0.109804584251158   1.0000000
N2   N   0.671463950327874   0.624216682451841   0.104501033085518   1.0000000
N2   N   0.672445155587196   0.763099302809276   0.104187345632496   1.0000000
N2   N   0.811349379755539   0.905524046712954   0.116747050860679   1.0000000
N2   N   0.809106801018137   0.046715213862931   0.114492938715079   1.0000000
N2   N   0.808672780759136   0.189873933705727   0.111631023134817   1.0000000
N2   N   0.808524355387932   0.333371917115692   0.111053885178406   1.0000000
N2   N   0.808435716550112   0.476823659856184   0.112601956917509   1.0000000
N2   N   0.810634209613198   0.620109456019559   0.115362185687360   1.0000000
N2   N   0.813463249167456   0.763965078707654   0.106552116556400   1.0000000
O2   O   0.639876315116883   0.678080411527285   0.064662073134199   1.0000000


