data_1
_audit_creation_method   'vasp2cif'
_cell_length_a    14.93631414619966
_cell_length_b    14.936314146199727
_cell_length_c    13.341276283792837
_cell_angle_alpha    90.0
_cell_angle_beta    90.0
_cell_angle_gamma    119.99999999999984

_symmetry_space_group_name_H-M    'P 1'
loop_
_atom_site_label
_atom_site_type_symbol
_atom_site_fract_x
_atom_site_fract_y
_atom_site_fract_z
_atom_site_occupancy
C2   C   0.440501658324845   0.386917495829086   0.375000000000000   1.0000000
N2   N   0.111070187758707   0.055554054137385   0.124938270429385   1.0000000
N2   N   0.611152361109768   0.555659293747016   0.123850488515187   1.0000000
N2   N   0.444436842181835   0.055570057794195   0.124876844947536   1.0000000
N2   N   0.944423859971777   0.555536210476018   0.124888511607459   1.0000000
N2   N   0.777747785709397   0.055540559521366   0.124919036858936   1.0000000
N2   N   0.111090173086159   0.722211753209743   0.625107897480396   1.0000000
N2   N   0.444436842181835   0.722200117720975   0.625123155052464   1.0000000
N2   N   0.277717736297948   0.222217818881419   0.625150242150840   1.0000000
N2   N   0.777782691266291   0.722253578884801   0.625229586804064   1.0000000
N2   N   0.611116109632833   0.222219648665554   0.625178866083618   1.0000000
N2   N   0.944399191853865   0.222190056327848   0.625118414011842   1.0000000
N2   N   0.277765245981659   0.722203519950515   0.124886746531107   1.0000000
N2   N   0.111030133838884   0.222181733586106   0.124871649168681   1.0000000
N2   N   0.444425457887335   0.222228578673574   0.124598297177662   1.0000000
N2   N   0.611116109632832   0.722229794300607   0.124821133916382   1.0000000
N2   N   0.944423859971777   0.722220982829095   0.124888511607459   1.0000000
N2   N   0.777765602146400   0.222198918804111   0.124919527288820   1.0000000
N2   N   0.111087546835594   0.888895352402659   0.625111978261556   1.0000000
N2   N   0.444434474269509   0.888883903801419   0.625107291305480   1.0000000
N2   N   0.277717736297948   0.388833250749858   0.625150242150840   1.0000000
N2   N   0.611152361109768   0.388826400696082   0.626149511484812   1.0000000
N2   N   0.777765602146400   0.888900016675616   0.625080472711181   1.0000000
N2   N   0.944425660453280   0.388859353302008   0.625086316752389   1.0000000
N2   N   0.111070187758707   0.388849466954650   0.124938270429385   1.0000000
N2   N   0.277765245981659   0.888895059364473   0.124886746531107   1.0000000
N2   N   0.611092938346280   0.888877616825220   0.124956087527049   1.0000000
N2   N   0.444342654005020   0.388837993669175   0.124009708154362   1.0000000
N2   N   0.944425660453280   0.888899640484601   0.124913683247611   1.0000000
N2   N   0.777782691266291   0.388862445714819   0.124770413195935   1.0000000
N2   N   0.277753805043573   0.555514367744770   0.625113800253115   1.0000000
N2   N   0.111070187758707   0.055554054137385   0.625061729570615   1.0000000
N2   N   0.611152361109768   0.555659293747016   0.626149511484812   1.0000000
N2   N   0.444436842181835   0.055570057794195   0.625123155052464   1.0000000
N2   N   0.944423859971777   0.555536210476018   0.625111488392541   1.0000000
N2   N   0.111087546835594   0.555525527766264   0.124888021738444   1.0000000
N2   N   0.777747785709397   0.055540559521366   0.625080963141063   1.0000000
N2   N   0.277753805043573   0.055572770632139   0.124886199746884   1.0000000
N2   N   0.444425457887335   0.555530212547097   0.124598297177662   1.0000000
N2   N   0.777764997356235   0.555549165344786   0.124739128966091   1.0000000
N2   N   0.611092938346280   0.055548654854388   0.124956087527049   1.0000000
N2   N   0.444425457887335   0.555530212547097   0.625401702822338   1.0000000
N2   N   0.944399191853865   0.055542468859352   0.124881585988159   1.0000000
N2   N   0.277765245981659   0.722203519950515   0.625113253468893   1.0000000
N2   N   0.111030133838884   0.222181733586106   0.625128350831318   1.0000000
N2   N   0.444425457887335   0.222228578673574   0.625401702822338   1.0000000
N2   N   0.611116109632832   0.722229794300607   0.625178866083618   1.0000000
N2   N   0.944423859971777   0.722220982829095   0.625111488392541   1.0000000
N2   N   0.777765602146400   0.222198918804111   0.625080472711181   1.0000000
N2   N   0.111090173086159   0.722211753209743   0.124892102519604   1.0000000
N2   N   0.444436842181835   0.722200117720975   0.124876844947536   1.0000000
N2   N   0.277717736297948   0.222217818881419   0.124849757849161   1.0000000
N2   N   0.777782691266291   0.722253578884801   0.124770413195935   1.0000000
N2   N   0.611116109632833   0.222219648665554   0.124821133916382   1.0000000
N2   N   0.944399191853865   0.222190056327848   0.124881585988159   1.0000000
N2   N   0.111070187758707   0.388849466954650   0.625061729570615   1.0000000
N2   N   0.277765245981659   0.888895059364473   0.625113253468893   1.0000000
N2   N   0.611092938346280   0.888877616825220   0.625043912472950   1.0000000
N2   N   0.444342654005020   0.388837993669175   0.625990291845639   1.0000000
N2   N   0.944425660453280   0.888899640484601   0.625086316752389   1.0000000
N2   N   0.111087546835594   0.888895352402659   0.124888021738444   1.0000000
N2   N   0.777782691266291   0.388862445714819   0.625229586804064   1.0000000
N2   N   0.444434474269509   0.888883903801419   0.124892708694520   1.0000000
N2   N   0.277717736297948   0.388833250749858   0.124849757849161   1.0000000
N2   N   0.277753805043573   0.555514367744770   0.124886199746884   1.0000000
N2   N   0.611152361109768   0.388826400696082   0.123850488515187   1.0000000
N2   N   0.777765602146400   0.888900016675616   0.124919527288820   1.0000000
N2   N   0.944425660453280   0.388859353302008   0.124913683247611   1.0000000
N2   N   0.111087546835594   0.555525527766264   0.625111978261556   1.0000000
N2   N   0.277753805043573   0.055572770632139   0.625113800253115   1.0000000
N2   N   0.777764997356235   0.555549165344786   0.625260871033910   1.0000000
N2   N   0.611092938346280   0.055548654854388   0.625043912472950   1.0000000
N2   N   0.944399191853865   0.055542468859352   0.625118414011842   1.0000000
N2   N   0.053521109556179   0.109834683271892   0.375000000000000   1.0000000
N2   N   0.555539946589998   0.599172096456535   0.375000000000000   1.0000000
N2   N   0.389799339010781   0.114646780749114   0.375000000000000   1.0000000
N2   N   0.893650913644749   0.613492123489045   0.375000000000000   1.0000000
N2   N   0.721051685134865   0.111672951876969   0.375000000000000   1.0000000
N2   N   0.055561063302763   0.777779632755323   0.875000000000000   1.0000000
N2   N   0.388884925994395   0.777781975861180   0.875000000000000   1.0000000
N2   N   0.222226732860673   0.277780033097004   0.875000000000000   1.0000000
N2   N   0.722219044042765   0.777773330746131   0.875000000000000   1.0000000
N2   N   0.555545892237591   0.277765200665561   0.875000000000000   1.0000000
N2   N   0.888890377600413   0.277783895283192   0.875000000000000   1.0000000
N2   N   0.224570954312305   0.778952143822820   0.375000000000000   1.0000000
N2   N   0.053521109556179   0.277019759617622   0.375000000000000   1.0000000
N2   N   0.386753989630370   0.279997284661038   0.375000000000000   1.0000000
N2   N   0.555797209485886   0.773174984702357   0.375000000000000   1.0000000
N2   N   0.889667610964473   0.777177440389493   0.375000000000000   1.0000000
N2   N   0.721219863612339   0.280354242899956   0.375000000000000   1.0000000
N2   N   0.055557574780504   0.944440606488562   0.875000000000000   1.0000000
N2   N   0.388884925994395   0.944436283466552   0.875000000000000   1.0000000
N2   N   0.222222976886750   0.444451647059370   0.875000000000000   1.0000000
N2   N   0.555554809520964   0.444444071427146   0.875000000000000   1.0000000
N2   N   0.722215620854644   0.944439633574840   0.875000000000000   1.0000000
N2   N   0.888895603251269   0.444450494385095   0.875000000000000   1.0000000
N2   N   0.055633426386913   0.444587940063371   0.375000000000000   1.0000000
N2   N   0.223888222202716   0.946058506213729   0.375000000000000   1.0000000
N2   N   0.555894902494262   0.944614117913794   0.375000000000000   1.0000000
N2   N   0.386753989630370   0.440090038302668   0.375000000000000   1.0000000
N2   N   0.887401568590240   0.942716395983796   0.375000000000000   1.0000000
N2   N   0.724261295542183   0.448586815111582   0.375000000000000   1.0000000
N2   N   0.222219282940811   0.611116702062352   0.875000000000000   1.0000000
N2   N   0.055558849417265   0.111108464462446   0.875000000000000   1.0000000
N2   N   0.555545892237591   0.611114024905364   0.875000000000000   1.0000000
N2   N   0.388881495921021   0.111093289641468   0.875000000000000   1.0000000
N2   N   0.888903305102381   0.611118319217862   0.875000000000000   1.0000000
N2   N   0.058329690376843   0.612262031015432   0.375000000000000   1.0000000
N2   N   0.722215620854644   0.111109320613139   0.875000000000000   1.0000000
N2   N   0.221646489866464   0.111368487464976   0.375000000000000   1.0000000
N2   N   0.389799339010781   0.608485891595010   0.375000000000000   1.0000000
N2   N   0.724261295542183   0.609007813763935   0.375000000000000   1.0000000
N2   N   0.555797209485886   0.115955558116865   0.375000000000000   1.0000000
N2   N   0.388881495921021   0.611121539612896   0.875000000000000   1.0000000
N2   N   0.886953107000107   0.110143220166725   0.375000000000000   1.0000000
N2   N   0.222221443691410   0.777777388512372   0.875000000000000   1.0000000
N2   N   0.055558849417265   0.277783718288154   0.875000000000000   1.0000000
N2   N   0.388887721833237   0.277769182406440   0.875000000000000   1.0000000
N2   N   0.555547850597251   0.777778470321184   0.875000000000000   1.0000000
N2   N   0.888895603251269   0.777778442199511   0.875000000000000   1.0000000
N2   N   0.722219044042765   0.277779046629970   0.875000000000000   1.0000000
N2   N   0.058329690376843   0.779400992694746   0.375000000000000   1.0000000
N2   N   0.390455520825351   0.777449119122719   0.375000000000000   1.0000000
N2   N   0.219115407874970   0.276224370604153   0.375000000000000   1.0000000
N2   N   0.721219863612339   0.774198954045718   0.375000000000000   1.0000000
N2   N   0.555539946589998   0.289701183466798   0.375000000000000   1.0000000
N2   N   0.887401568590240   0.278018505939779   0.375000000000000   1.0000000
N2   N   0.055557574780504   0.444450301625271   0.875000000000000   1.0000000
N2   N   0.222219282940811   0.944435914211793   0.875000000000000   1.0000000
N2   N   0.555547776757408   0.944440555045368   0.875000000000000   1.0000000
N2   N   0.388887721833237   0.444451872760132   0.875000000000000   1.0000000
N2   N   0.888890377600413   0.944439815650557   0.875000000000000   1.0000000
N2   N   0.055633426386913   0.944378819656871   0.375000000000000   1.0000000
N2   N   0.722230924994243   0.444451184158667   0.875000000000000   1.0000000
N2   N   0.390455520825351   0.946339735035967   0.375000000000000   1.0000000
N2   N   0.221646489866464   0.443611335734824   0.375000000000000   1.0000000
N2   N   0.223888222202716   0.611163049322323   0.375000000000000   1.0000000
N2   N   0.721051685134865   0.942712066591232   0.375000000000000   1.0000000
N2   N   0.889667610964473   0.445823503908317   0.375000000000000   1.0000000
N2   N   0.055561063302763   0.611114763880777   0.875000000000000   1.0000000
N2   N   0.222222976886750   0.111104663160716   0.875000000000000   1.0000000
N2   N   0.722230924994243   0.611113074168912   0.875000000000000   1.0000000
N2   N   0.555547850597251   0.111102713609404   0.875000000000000   1.0000000
N2   N   0.888888887875637   0.111111110604490   0.875000000000000   1.0000000
B2   B   0.110407483901863   0.055355400419529   0.375000000000000   1.0000000
B2   B   0.610845693330017   0.534865628660182   0.375000000000000   1.0000000
B2   B   0.445011125531105   0.058645730827860   0.375000000000000   1.0000000
B2   B   0.947168782404848   0.556880065658572   0.375000000000000   1.0000000
B2   B   0.775715001245675   0.054524167289506   0.375000000000000   1.0000000
B2   B   0.111099565153284   0.722216449243306   0.875000000000000   1.0000000
B2   B   0.444446401743156   0.722199184181166   0.875000000000000   1.0000000
B2   B   0.277852701727472   0.222265699096710   0.875000000000000   1.0000000
B2   B   0.777731244443006   0.722146046134278   0.875000000000000   1.0000000
B2   B   0.611085168444128   0.222267405111949   0.875000000000000   1.0000000
B2   B   0.944446065588495   0.222235200433742   0.875000000000000   1.0000000
B2   B   0.279539933918634   0.722477244103919   0.375000000000000   1.0000000
B2   B   0.108591828762954   0.220962581048141   0.375000000000000   1.0000000
B2   B   0.445452776291237   0.227587084854905   0.375000000000000   1.0000000
B2   B   0.609757655094391   0.712912162393073   0.375000000000000   1.0000000
B2   B   0.947168782404848   0.723622050079612   0.375000000000000   1.0000000
B2   B   0.775777638971497   0.223469464392178   0.375000000000000   1.0000000
B2   B   0.111111313906652   0.888878733202768   0.875000000000000   1.0000000
B2   B   0.444437762408403   0.888885547870865   0.875000000000000   1.0000000
B2   B   0.277852701727472   0.388920335964090   0.875000000000000   1.0000000
B2   B   0.611085078870345   0.388922379904859   0.875000000000000   1.0000000
B2   B   0.777749968343756   0.888835117354838   0.875000000000000   1.0000000
B2   B   0.944427402360198   0.388909386745113   0.875000000000000   1.0000000
B2   B   0.110407483901863   0.388385416815663   0.375000000000000   1.0000000
B2   B   0.279539933918634   0.890396023148043   0.375000000000000   1.0000000
B2   B   0.610072189626115   0.885909098999387   0.375000000000000   1.0000000
B2   B   0.944045255370443   0.887878433064853   0.375000000000000   1.0000000
B2   B   0.777338919865125   0.391827364035615   0.375000000000000   1.0000000
B2   B   0.277808616318158   0.555563988418251   0.875000000000000   1.0000000
B2   B   0.111137351144456   0.055561012209114   0.875000000000000   1.0000000
B2   B   0.611085078870345   0.555496032298815   0.875000000000000   1.0000000
B2   B   0.444446401743156   0.055580550895325   0.875000000000000   1.0000000
B2   B   0.944411889349871   0.555555801551618   0.875000000000000   1.0000000
B2   B   0.112798485718432   0.555946962564914   0.375000000000000   1.0000000
B2   B   0.777761124652066   0.055547228992701   0.875000000000000   1.0000000
B2   B   0.278957513374558   0.057530564206742   0.375000000000000   1.0000000
B2   B   0.445452776291237   0.551199024769667   0.375000000000000   1.0000000
B2   B   0.782860468248804   0.558096900791069   0.375000000000000   1.0000000
B2   B   0.610072189626115   0.057496423960057   0.375000000000000   1.0000000
B2   B   0.444476210283997   0.555538726313403   0.875000000000000   1.0000000
B2   B   0.942300632628534   0.053952527360489   0.375000000000000   1.0000000
B2   B   0.277782258907036   0.722221512427450   0.875000000000000   1.0000000
B2   B   0.111155256101502   0.222244294717415   0.875000000000000   1.0000000
B2   B   0.444476210283997   0.222270817303931   0.875000000000000   1.0000000
B2   B   0.611085168444128   0.722151096665506   0.875000000000000   1.0000000
B2   B   0.944411889349871   0.722189421131588   0.875000000000000   1.0000000
B2   B   0.777749968343756   0.222248184322246   0.875000000000000   1.0000000
B2   B   0.113528099185481   0.723430716259404   0.375000000000000   1.0000000
B2   B   0.445011125531105   0.719698728036580   0.375000000000000   1.0000000
B2   B   0.276012135404763   0.222364622523387   0.375000000000000   1.0000000
B2   B   0.777338919865125   0.718844889162838   0.375000000000000   1.0000000
B2   B   0.609757655094391   0.230178826034646   0.375000000000000   1.0000000
B2   B   0.942300632628534   0.221681438601380   0.375000000000000   1.0000000
B2   B   0.111137351144456   0.388909672268670   0.875000000000000   1.0000000
B2   B   0.277782258907036   0.888894079812916   0.875000000000000   1.0000000
B2   B   0.611091181919040   0.888858017193941   0.875000000000000   1.0000000
B2   B   0.444518418960675   0.388925876147002   0.875000000000000   1.0000000
B2   B   0.944427402360198   0.888851348948415   0.875000000000000   1.0000000
B2   B   0.112798485718432   0.890184856486847   0.375000000000000   1.0000000
B2   B   0.777731244443006   0.388918531642056   0.875000000000000   1.0000000
B2   B   0.445106565726763   0.889219949530046   0.375000000000000   1.0000000
B2   B   0.276012135404763   0.386980846214705   0.375000000000000   1.0000000
B2   B   0.278957513374558   0.554760282501152   0.375000000000000   1.0000000
B2   B   0.610845693330017   0.409313398003164   0.375000000000000   1.0000000
B2   B   0.775777638971497   0.885641507912649   0.375000000000000   1.0000000
B2   B   0.944045255370443   0.389500155638920   0.375000000000000   1.0000000
B2   B   0.111111313906652   0.555565914037213   0.875000000000000   1.0000000
B2   B   0.277808616318158   0.055577961233242   0.875000000000000   1.0000000
B2   B   0.777725541140110   0.555529437236723   0.875000000000000   1.0000000
B2   B   0.611091181919040   0.055566498058428   0.875000000000000   1.0000000
B2   B   0.944446065588495   0.055544198488088   0.875000000000000   1.0000000
B2   B   0.055525879534489   0.111108726586720   0.125036436542736   1.0000000
B2   B   0.555643493306605   0.610919125084039   0.125061813638083   1.0000000
B2   B   0.388992714897991   0.111344029862708   0.125094349977326   1.0000000
B2   B   0.888643635793499   0.610988484563422   0.125188309207178   1.0000000
B2   B   0.722191686484276   0.111135421342069   0.125099886830421   1.0000000
B2   B   0.055442834828674   0.777728996236809   0.624929118123844   1.0000000
B2   B   0.388928662281697   0.777733180790111   0.624932487630794   1.0000000
B2   B   0.222271025110243   0.277802179221789   0.624958098744005   1.0000000
B2   B   0.722159410060139   0.777643083837567   0.624858307851789   1.0000000
B2   B   0.555643493306605   0.278057701555901   0.624938186361917   1.0000000
B2   B   0.888822469091630   0.277769223010803   0.624926863098323   1.0000000
B2   B   0.222202962238004   0.777768147785670   0.125037413166387   1.0000000
B2   B   0.055525879534489   0.277750486281105   0.125036436542736   1.0000000
B2   B   0.389075039053105   0.278046727105712   0.125016631092355   1.0000000
B2   B   0.555586788051650   0.777666189471262   0.125146856179812   1.0000000
B2   B   0.888734700663262   0.777670480554389   0.125139273661263   1.0000000
B2   B   0.722159410060139   0.277849659555908   0.125141692148212   1.0000000
B2   B   0.055502827486359   0.944436343724578   0.624924648234489   1.0000000
B2   B   0.388928662281697   0.944528814824921   0.624932487630794   1.0000000
B2   B   0.222274342916498   0.444387311648927   0.624911931699001   1.0000000
B2   B   0.555595824599196   0.444464578966263   0.623295597646523   1.0000000
B2   B   0.722191686484276   0.944389598475544   0.624900113169578   1.0000000
B2   B   0.888734700663262   0.444397553442208   0.624860726338737   1.0000000
B2   B   0.055502827486359   0.444399817095109   0.125075351765512   1.0000000
B2   B   0.222230627815568   0.944517760179865   0.125057875667085   1.0000000
B2   B   0.555566237160109   0.944449785246720   0.125114555104873   1.0000000
B2   B   0.389075039053105   0.444361645280729   0.125016631092355   1.0000000
B2   B   0.888822469091630   0.944386579414163   0.125073136901677   1.0000000
B2   B   0.721978728323801   0.444381793365912   0.125191777808276   1.0000000
B2   B   0.222230627815568   0.611046200969038   0.624942124332916   1.0000000
B2   B   0.055525879534489   0.111108726586720   0.624963563457264   1.0000000
B2   B   0.555643493306605   0.610919125084039   0.624938186361917   1.0000000
B2   B   0.388992714897991   0.111344029862708   0.624905650022675   1.0000000
B2   B   0.888643635793499   0.610988484563422   0.624811690792822   1.0000000
B2   B   0.055442834828674   0.611047171925201   0.125070881876157   1.0000000
B2   B   0.722191686484276   0.111135421342069   0.624900113169578   1.0000000
B2   B   0.222274342916498   0.111220364600907   0.125088068300999   1.0000000
B2   B   0.388992714897991   0.610982018368626   0.125094349977326   1.0000000
B2   B   0.721978728323801   0.610930268291222   0.125191777808276   1.0000000
B2   B   0.555586788051650   0.111253931913725   0.125146856179812   1.0000000
B2   B   0.388992714897991   0.610982018368626   0.624905650022675   1.0000000
B2   B   0.888841423195620   0.111087378264482   0.125024311069646   1.0000000
B2   B   0.222202962238004   0.777768147785670   0.624962586833613   1.0000000
B2   B   0.055525879534489   0.277750486281105   0.624963563457264   1.0000000
B2   B   0.389075039053105   0.278046727105712   0.624983368907645   1.0000000
B2   B   0.555586788051650   0.777666189471262   0.624853143820188   1.0000000
B2   B   0.888734700663262   0.777670480554389   0.624860726338737   1.0000000
B2   B   0.722159410060139   0.277849659555908   0.624858307851789   1.0000000
B2   B   0.055442834828674   0.777728996236809   0.125070881876157   1.0000000
B2   B   0.388928662281697   0.777733180790111   0.125067512369207   1.0000000
B2   B   0.222271025110243   0.277802179221789   0.125041901255996   1.0000000
B2   B   0.722159410060139   0.777643083837567   0.125141692148212   1.0000000
B2   B   0.555643493306605   0.278057701555901   0.125061813638083   1.0000000
B2   B   0.888822469091630   0.277769223010803   0.125073136901677   1.0000000
B2   B   0.055502827486359   0.444399817095109   0.624924648234489   1.0000000
B2   B   0.222230627815568   0.944517760179865   0.624942124332916   1.0000000
B2   B   0.555566237160109   0.944449785246720   0.624885444895126   1.0000000
B2   B   0.389075039053105   0.444361645280729   0.624983368907645   1.0000000
B2   B   0.888822469091630   0.944386579414163   0.624926863098323   1.0000000
B2   B   0.055502827486359   0.944436343724578   0.125075351765512   1.0000000
B2   B   0.721978728323801   0.444381793365912   0.624808222191725   1.0000000
B2   B   0.388928662281697   0.944528814824921   0.125067512369207   1.0000000
B2   B   0.222274342916498   0.444387311648927   0.125088068300999   1.0000000
B2   B   0.222230627815568   0.611046200969038   0.125057875667085   1.0000000
B2   B   0.555595824599196   0.444464578966263   0.126704402353477   1.0000000
B2   B   0.722191686484276   0.944389598475544   0.125099886830421   1.0000000
B2   B   0.888734700663262   0.444397553442208   0.125139273661263   1.0000000
B2   B   0.055442834828674   0.611047171925201   0.624929118123844   1.0000000
B2   B   0.222274342916498   0.111220364600907   0.624911931699001   1.0000000
B2   B   0.721978728323801   0.610930268291222   0.624808222191725   1.0000000
B2   B   0.555586788051650   0.111253931913725   0.624853143820188   1.0000000
B2   B   0.888841423195620   0.111087378264482   0.624975688930353   1.0000000


