data_1
_audit_creation_method   'vasp2cif'
_cell_length_a    17.52789999999977
_cell_length_b    17.52789999999977
_cell_length_c    15.0
_cell_angle_alpha    90.0
_cell_angle_beta    90.0
_cell_angle_gamma    119.99999999999916

_symmetry_space_group_name_H-M    'P 1'
loop_
_atom_site_label
_atom_site_type_symbol
_atom_site_fract_x
_atom_site_fract_y
_atom_site_fract_z
_atom_site_occupancy
B2   B   0.904279978036688   0.951364257396092   0.104987206259044   1.0000000
B2   B   0.904113626367476   0.093778631682362   0.106743001598910   1.0000000
B2   B   0.904335950854506   0.236669158978615   0.106345057792789   1.0000000
B2   B   0.904608808522005   0.379797608287885   0.105060306843057   1.0000000
B2   B   0.905662706809211   0.523242127218991   0.103478048200979   1.0000000
B2   B   0.905892085719162   0.666620422276211   0.102572693561725   1.0000000
B2   B   0.905288550719778   0.809430895071269   0.101458406335354   1.0000000
B2   B   0.048085521320216   0.952856876756645   0.103771733861273   1.0000000
B2   B   0.048191153803019   0.095698623824485   0.105372592978815   1.0000000
B2   B   0.047576649268946   0.237656236929735   0.105414184864948   1.0000000
B2   B   0.047145099857328   0.380191425667230   0.103285556950813   1.0000000
B2   B   0.047143467561784   0.523403421384474   0.102415487168312   1.0000000
B2   B   0.047763598317836   0.666824372246250   0.102855361004013   1.0000000
B2   B   0.048155817683830   0.810011956160556   0.102795923744977   1.0000000
B2   B   0.191009009190641   0.953215693102973   0.105487528641019   1.0000000
B2   B   0.191247305283077   0.096380323435545   0.106098893841459   1.0000000
B2   B   0.192441124199702   0.240537132276969   0.107216373382128   1.0000000
B2   B   0.190356208303075   0.381284333349631   0.104248693208363   1.0000000
B2   B   0.188760775260379   0.523778045373932   0.100451854438240   1.0000000
B2   B   0.189420822105363   0.666880882584607   0.102805949761287   1.0000000
B2   B   0.190554654292877   0.810059426407145   0.105045364743573   1.0000000
B2   B   0.333557324780413   0.952752290359913   0.108144960225672   1.0000000
B2   B   0.334016352784532   0.096167423946009   0.109310514003405   1.0000000
B2   B   0.334084898993954   0.239641850569058   0.112810388972220   1.0000000
B2   B   0.337601287632379   0.387467324191258   0.117226719248855   1.0000000
B2   B   0.329711878807068   0.524544664740460   0.106122242869319   1.0000000
B2   B   0.330875058067093   0.667136404847808   0.104145029422211   1.0000000
B2   B   0.332870616157659   0.809661489630075   0.108132011605062   1.0000000
B2   B   0.475911760234426   0.950783528266397   0.111037561780803   1.0000000
B2   B   0.476459084447569   0.094669435626523   0.110613496687636   1.0000000
B2   B   0.476923912836695   0.238147793635496   0.118164767953558   1.0000000
B2   B   0.473402686925846   0.376630625173531   0.145169248831384   1.0000000
B2   B   0.472033199360075   0.559140187045438   0.150199645644072   1.0000000
B2   B   0.468758064860954   0.658679569336839   0.128120721990040   1.0000000
B2   B   0.474790740482362   0.806061050089196   0.116198052799354   1.0000000
B2   B   0.617928373349344   0.949536722005545   0.113108238623278   1.0000000
B2   B   0.618756769000603   0.093507903939268   0.110566810499041   1.0000000
B2   B   0.619304358147418   0.237067136376749   0.113353359909859   1.0000000
B2   B   0.620451702250475   0.380468010031730   0.127271524649767   1.0000000
B2   B   0.634644968397672   0.529693173652774   0.149795018049472   1.0000000
B2   B   0.619822905916939   0.662327677088564   0.109259570820007   1.0000000
B2   B   0.615863251685754   0.804682658781898   0.116362709481913   1.0000000
B2   B   0.760286689511071   0.949559379099100   0.109388402451085   1.0000000
B2   B   0.761147624503082   0.093123856194268   0.109218893654978   1.0000000
B2   B   0.761703328891948   0.236490210469460   0.108727651483833   1.0000000
B2   B   0.762316249407209   0.379735368292946   0.109991527027485   1.0000000
B2   B   0.764797482285254   0.523092155403259   0.111620904997567   1.0000000
B2   B   0.764018741267612   0.666337821223414   0.105153322017035   1.0000000
B2   B   0.760592768580709   0.806945345178779   0.105846359472442   1.0000000
N2   N   0.952566809891231   0.904546077080461   0.102980856917088   1.0000000
N2   N   0.952336794931802   0.046860647867251   0.105676811609288   1.0000000
N2   N   0.952032890833788   0.189184893547303   0.106194509615560   1.0000000
N2   N   0.951918232954949   0.332016574702611   0.104838007653904   1.0000000
N2   N   0.952291121759701   0.475188069410574   0.103429013691375   1.0000000
N2   N   0.952829465256536   0.618683063004159   0.102580987717620   1.0000000
N2   N   0.952889719031965   0.761937178507500   0.101391196541894   1.0000000
N2   N   0.095697362860938   0.905327532694419   0.103769258536701   1.0000000
N2   N   0.095841362850111   0.048200950568528   0.104881513021756   1.0000000
N2   N   0.096422211132143   0.191345931115022   0.105792871861588   1.0000000
N2   N   0.094982406868786   0.332792070710941   0.103998544833747   1.0000000
N2   N   0.093998719206286   0.475475266963457   0.101662778386064   1.0000000
N2   N   0.094513071134731   0.618808826882224   0.102610865275822   1.0000000
N2   N   0.095374816196392   0.762209960905735   0.103545524397796   1.0000000
N2   N   0.238336853637392   0.905366377823419   0.106298854509127   1.0000000
N2   N   0.238754402654152   0.048606286503328   0.106602307055959   1.0000000
N2   N   0.239107772185088   0.191896513747218   0.107452991288444   1.0000000
N2   N   0.241060999323300   0.336654561623425   0.108461741619430   1.0000000
N2   N   0.235659402767445   0.475943029308528   0.100884230543158   1.0000000
N2   N   0.236039791588569   0.619013399184765   0.100780811918656   1.0000000
N2   N   0.237660639729211   0.762189936545842   0.105167301817247   1.0000000
N2   N   0.380786688283417   0.904707311882919   0.109381851651233   1.0000000
N2   N   0.381288691100235   0.048021293872665   0.109166492767196   1.0000000
N2   N   0.381718551348358   0.191613329037502   0.113218314915135   1.0000000
N2   N   0.381846806230978   0.335117511854429   0.121670963402157   1.0000000
N2   N   0.383370133285585   0.484559053982176   0.118490799480771   1.0000000
N2   N   0.376752569498867   0.619264127164685   0.105666969562096   1.0000000
N2   N   0.379872354047279   0.761688739013572   0.110004728008467   1.0000000
N2   N   0.522846644611969   0.901959506477800   0.113749991011521   1.0000000
N2   N   0.523628991061355   0.046295017799840   0.110410700885586   1.0000000
N2   N   0.524138855673832   0.190039931654413   0.113276795919713   1.0000000
N2   N   0.524367450683995   0.333105075451198   0.130871667672846   1.0000000
N2   N   0.520841049241331   0.755744889606895   0.124419795983335   1.0000000
N2   N   0.664671455127800   0.900683192774324   0.113171353538037   1.0000000
N2   N   0.665878978707976   0.045185658681603   0.110895341380851   1.0000000
N2   N   0.666497313628750   0.188985158549820   0.110343685470316   1.0000000
N2   N   0.667061527869356   0.332473549295181   0.116177678161266   1.0000000
N2   N   0.671706647739213   0.475905314835584   0.128709865914365   1.0000000
N2   N   0.668802073267887   0.617531266720999   0.114209316339494   1.0000000
N2   N   0.663714312821572   0.756749279194815   0.109418907206818   1.0000000
N2   N   0.808315118328974   0.902352594442452   0.106759484773681   1.0000000
N2   N   0.808492538841542   0.045191696861194   0.108381291201102   1.0000000
N2   N   0.809007156794495   0.188587877093434   0.107966117180261   1.0000000
N2   N   0.809403072171775   0.331835425554342   0.107452845779650   1.0000000
N2   N   0.810876503221949   0.475018337096589   0.106159004087171   1.0000000
N2   N   0.811041650605925   0.618439047416740   0.105491630364010   1.0000000
N2   N   0.809686211123522   0.761030182387040   0.101335945753961   1.0000000
Ge2   Ge   0.524680181962539   0.492971153178753   0.220171762102273   1.0000000


