data_1
_audit_creation_method   'vasp2cif'
_cell_length_a    14.93631414619966
_cell_length_b    14.936314146199727
_cell_length_c    13.341276283792837
_cell_angle_alpha    90.0
_cell_angle_beta    90.0
_cell_angle_gamma    119.99999999999984

_symmetry_space_group_name_H-M    'P 1'
loop_
_atom_site_label
_atom_site_type_symbol
_atom_site_fract_x
_atom_site_fract_y
_atom_site_fract_z
_atom_site_occupancy
N2   N   0.111111040332058   0.055540203237666   0.124970714665920   1.0000000
N2   N   0.611100754882567   0.555528842526848   0.125826781599585   1.0000000
N2   N   0.444430788574888   0.055538746010071   0.125022998759737   1.0000000
N2   N   0.944448943653982   0.555556411664102   0.125013121600051   1.0000000
N2   N   0.777764653981226   0.055549387498775   0.124955600797629   1.0000000
N2   N   0.111107472384990   0.722215831005423   0.625031895751771   1.0000000
N2   N   0.444429846290826   0.722211954339230   0.624871686301591   1.0000000
N2   N   0.277787829761967   0.222213194726171   0.624835515562907   1.0000000
N2   N   0.777759090255811   0.722194023825506   0.624675546372118   1.0000000
N2   N   0.611091450689055   0.222217193653080   0.624888060158809   1.0000000
N2   N   0.944445280380270   0.222225968384479   0.625043657779118   1.0000000
N2   N   0.277768564473684   0.722215843467191   0.124993013973259   1.0000000
N2   N   0.111120050300481   0.222219838086074   0.125004075011076   1.0000000
N2   N   0.444440754081261   0.222215540129974   0.125318790848589   1.0000000
N2   N   0.611091464029910   0.722212103556484   0.125155108542842   1.0000000
N2   N   0.944442775868109   0.722214205643247   0.125087153254997   1.0000000
N2   N   0.777765683209252   0.222227162803535   0.124995956241214   1.0000000
N2   N   0.111107656812498   0.888874178605881   0.625031399465268   1.0000000
N2   N   0.444428175797516   0.888878386083610   0.625010930887731   1.0000000
N2   N   0.277788514872722   0.388895571715014   0.624841669207590   1.0000000
N2   N   0.611104312289850   0.388888391372279   0.624442380750718   1.0000000
N2   N   0.777768057278322   0.888872846678162   0.624992542118697   1.0000000
N2   N   0.944444795692923   0.388898004583603   0.625048674652368   1.0000000
N2   N   0.111111905801035   0.388894211682522   0.124971056708115   1.0000000
N2   N   0.277772205972126   0.888877293959782   0.124960553693645   1.0000000
N2   N   0.611092023458116   0.888880288088862   0.124977524739206   1.0000000
N2   N   0.444453318029994   0.388893508395874   0.125790754759623   1.0000000
N2   N   0.944438493027665   0.888872515294054   0.125005610173168   1.0000000
N2   N   0.777778856828886   0.388900572219675   0.125100846000065   1.0000000
N2   N   0.277764774700537   0.555555968152677   0.624974857707646   1.0000000
N2   N   0.111111040332058   0.055540203237666   0.625029285334080   1.0000000
N2   N   0.611100754882567   0.555528842526848   0.624173218400415   1.0000000
N2   N   0.444430788574888   0.055538746010071   0.624977001240263   1.0000000
N2   N   0.944448943653982   0.555556411664102   0.624986878399949   1.0000000
N2   N   0.111106120144259   0.555558498545125   0.124951714287213   1.0000000
N2   N   0.777764653981226   0.055549387498775   0.625044399202371   1.0000000
N2   N   0.277772166642339   0.055537841670795   0.125026643992514   1.0000000
N2   N   0.444422590822930   0.555542273783792   0.125294275225306   1.0000000
N2   N   0.777774901627540   0.555551337688030   0.125393576561077   1.0000000
N2   N   0.611093284500442   0.055549458198663   0.124963284385475   1.0000000
N2   N   0.444422590822930   0.555542273783792   0.624705724774694   1.0000000
N2   N   0.944444412228299   0.055544026004059   0.124956639920549   1.0000000
N2   N   0.277768564473684   0.722215843467191   0.625006986026741   1.0000000
N2   N   0.111120050300481   0.222219838086074   0.624995924988923   1.0000000
N2   N   0.444440754081261   0.222215540129974   0.624681209151410   1.0000000
N2   N   0.611091464029910   0.722212103556484   0.624844891457158   1.0000000
N2   N   0.944442775868109   0.722214205643247   0.624912846745003   1.0000000
N2   N   0.777765683209252   0.222227162803535   0.625004043758786   1.0000000
N2   N   0.111107472384990   0.722215831005423   0.124968104248229   1.0000000
N2   N   0.444429846290826   0.722211954339230   0.125128313698409   1.0000000
N2   N   0.277787829761967   0.222213194726171   0.125164484437093   1.0000000
N2   N   0.777759090255811   0.722194023825506   0.125324453627882   1.0000000
N2   N   0.611091450689055   0.222217193653080   0.125111939841191   1.0000000
N2   N   0.944445280380270   0.222225968384479   0.124956342220882   1.0000000
N2   N   0.111111905801035   0.388894211682522   0.625028943291885   1.0000000
N2   N   0.277772205972126   0.888877293959782   0.625039446306355   1.0000000
N2   N   0.611092023458116   0.888880288088862   0.625022475260795   1.0000000
N2   N   0.444453318029994   0.388893508395874   0.624209245240377   1.0000000
N2   N   0.944438493027665   0.888872515294054   0.624994389826832   1.0000000
N2   N   0.111107656812498   0.888874178605881   0.124968600534731   1.0000000
N2   N   0.777778856828886   0.388900572219675   0.624899153999934   1.0000000
N2   N   0.444428175797516   0.888878386083610   0.124989069112268   1.0000000
N2   N   0.277788514872722   0.388895571715014   0.125158330792410   1.0000000
N2   N   0.277764774700537   0.555555968152677   0.125025142292353   1.0000000
N2   N   0.611104312289850   0.388888391372279   0.125557619249282   1.0000000
N2   N   0.777768057278322   0.888872846678162   0.125007457881303   1.0000000
N2   N   0.944444795692923   0.388898004583603   0.124951325347631   1.0000000
N2   N   0.111106120144259   0.555558498545125   0.625048285712786   1.0000000
N2   N   0.277772166642339   0.055537841670795   0.624973356007486   1.0000000
N2   N   0.777774901627540   0.555551337688030   0.624606423438922   1.0000000
N2   N   0.611093284500442   0.055549458198663   0.625036715614525   1.0000000
N2   N   0.944444412228299   0.055544026004059   0.625043360079452   1.0000000
N2   N   0.055608115967000   0.111080942110236   0.375000000000000   1.0000000
N2   N   0.389437539476245   0.112089369539979   0.375000000000000   1.0000000
N2   N   0.889918436993613   0.611148602298249   0.375000000000000   1.0000000
N2   N   0.722173893030729   0.111605342607014   0.375000000000000   1.0000000
N2   N   0.055556324949270   0.777775710195932   0.875000000000000   1.0000000
N2   N   0.388894259119491   0.777778800122289   0.875000000000000   1.0000000
N2   N   0.222220616594737   0.277774641237565   0.875000000000000   1.0000000
N2   N   0.722220203158367   0.777771196085015   0.875000000000000   1.0000000
N2   N   0.555555277740388   0.277771956210439   0.875000000000000   1.0000000
N2   N   0.888887795000698   0.277774279089852   0.875000000000000   1.0000000
N2   N   0.222511870615173   0.778063893174656   0.375000000000000   1.0000000
N2   N   0.055258303871218   0.277549044519496   0.375000000000000   1.0000000
N2   N   0.390953598004829   0.279617250923614   0.375000000000000   1.0000000
N2   N   0.556264762204330   0.778462448581064   0.375000000000000   1.0000000
N2   N   0.888281133736208   0.776971174385875   0.375000000000000   1.0000000
N2   N   0.721888542712884   0.278307969688070   0.375000000000000   1.0000000
N2   N   0.055551467268833   0.944440662970485   0.875000000000000   1.0000000
N2   N   0.388892598038306   0.944443278305795   0.875000000000000   1.0000000
N2   N   0.222216595031937   0.444442549926904   0.875000000000000   1.0000000
N2   N   0.555550749594192   0.444444487538175   0.875000000000000   1.0000000
N2   N   0.722227353286712   0.944443888227066   0.875000000000000   1.0000000
N2   N   0.888896452213590   0.444442563774712   0.875000000000000   1.0000000
N2   N   0.055166175051831   0.444240940901069   0.375000000000000   1.0000000
N2   N   0.222614269757726   0.944953930671520   0.375000000000000   1.0000000
N2   N   0.555781325966590   0.945378253290867   0.375000000000000   1.0000000
N2   N   0.388577299140090   0.442697527251751   0.375000000000000   1.0000000
N2   N   0.889524881714874   0.944941873194496   0.375000000000000   1.0000000
N2   N   0.720790775270688   0.444743857663283   0.375000000000000   1.0000000
N2   N   0.222221532221707   0.611110426490920   0.875000000000000   1.0000000
N2   N   0.055553139575175   0.111107114240112   0.875000000000000   1.0000000
N2   N   0.555556368236930   0.611106882255670   0.875000000000000   1.0000000
N2   N   0.388891397545306   0.111112310253445   0.875000000000000   1.0000000
N2   N   0.888883566360404   0.611104833354131   0.875000000000000   1.0000000
N2   N   0.055699517154138   0.611157020313609   0.375000000000000   1.0000000
N2   N   0.722223253228148   0.111107557004929   0.875000000000000   1.0000000
N2   N   0.222841950940044   0.111742942520230   0.375000000000000   1.0000000
N2   N   0.386923999226789   0.610266050601545   0.375000000000000   1.0000000
N2   N   0.721933592215298   0.607607005541804   0.375000000000000   1.0000000
N2   N   0.555765597956200   0.112812818343363   0.375000000000000   1.0000000
N2   N   0.388895848452651   0.611108508096223   0.875000000000000   1.0000000
N2   N   0.888876706692021   0.111262844714772   0.375000000000000   1.0000000
N2   N   0.222224626280606   0.777776877295334   0.875000000000000   1.0000000
N2   N   0.055549076543225   0.277770621822206   0.875000000000000   1.0000000
N2   N   0.388887110790109   0.277778810225353   0.875000000000000   1.0000000
N2   N   0.555559169625253   0.777783010077707   0.875000000000000   1.0000000
N2   N   0.888892086449160   0.777778497198331   0.875000000000000   1.0000000
N2   N   0.722222063893059   0.277775941555373   0.875000000000000   1.0000000
N2   N   0.055794708421749   0.778009206436054   0.375000000000000   1.0000000
N2   N   0.389231266915428   0.777837289216554   0.375000000000000   1.0000000
N2   N   0.221764112891529   0.277083711737175   0.375000000000000   1.0000000
N2   N   0.723778804313724   0.778983586709939   0.375000000000000   1.0000000
N2   N   0.555686062264370   0.281512548637274   0.375000000000000   1.0000000
N2   N   0.888559352254234   0.277820739907945   0.375000000000000   1.0000000
N2   N   0.055555499990477   0.444442495116188   0.875000000000000   1.0000000
N2   N   0.222223476483468   0.944443633714261   0.875000000000000   1.0000000
N2   N   0.555557891117695   0.944443951619710   0.875000000000000   1.0000000
N2   N   0.388882043215840   0.444440773171973   0.875000000000000   1.0000000
N2   N   0.888891213414489   0.944444314837985   0.875000000000000   1.0000000
N2   N   0.055649520579171   0.944484338751595   0.375000000000000   1.0000000
N2   N   0.722220239908829   0.444438732493322   0.875000000000000   1.0000000
N2   N   0.389267208039158   0.945039042047185   0.375000000000000   1.0000000
N2   N   0.221880920340450   0.443844461707274   0.375000000000000   1.0000000
N2   N   0.221601326243306   0.611009538942263   0.375000000000000   1.0000000
N2   N   0.722533679140144   0.944915115059988   0.375000000000000   1.0000000
N2   N   0.888282784059980   0.444389785545224   0.375000000000000   1.0000000
N2   N   0.055553173258432   0.611107173899012   0.875000000000000   1.0000000
N2   N   0.222213678905901   0.111102264792185   0.875000000000000   1.0000000
N2   N   0.722222557390400   0.611109969024401   0.875000000000000   1.0000000
N2   N   0.555554305378736   0.111102103163094   0.875000000000000   1.0000000
N2   N   0.888888864326091   0.111105127192850   0.875000000000000   1.0000000
B2   B   0.111117446063357   0.055631306100298   0.375000000000000   1.0000000
B2   B   0.613744120997605   0.548709214087965   0.375000000000000   1.0000000
B2   B   0.444784588541496   0.056001521049679   0.375000000000000   1.0000000
B2   B   0.945195300995891   0.555401707491537   0.375000000000000   1.0000000
B2   B   0.777881361060005   0.056023387595233   0.375000000000000   1.0000000
B2   B   0.111289289379579   0.722227628563743   0.875000000000000   1.0000000
B2   B   0.444293993298627   0.722078306446968   0.875000000000000   1.0000000
B2   B   0.277745365396572   0.222367011070735   0.875000000000000   1.0000000
B2   B   0.777786743833726   0.722398442045385   0.875000000000000   1.0000000
B2   B   0.611285773398755   0.222203497470995   0.875000000000000   1.0000000
B2   B   0.944269587982157   0.222038287723265   0.875000000000000   1.0000000
B2   B   0.277831329740615   0.722305788420893   0.375000000000000   1.0000000
B2   B   0.110256810049761   0.221657220980803   0.375000000000000   1.0000000
B2   B   0.444617313302708   0.222043048321939   0.375000000000000   1.0000000
B2   B   0.613781225123136   0.725219523607012   0.375000000000000   1.0000000
B2   B   0.945086912740333   0.722549105043911   0.375000000000000   1.0000000
B2   B   0.777693969142130   0.222378254470191   0.375000000000000   1.0000000
B2   B   0.111106067007359   0.889052231174745   0.875000000000000   1.0000000
B2   B   0.444620804054925   0.888889119593571   0.875000000000000   1.0000000
B2   B   0.277593046638036   0.388719094108207   0.875000000000000   1.0000000
B2   B   0.611118773847231   0.389033513897472   0.875000000000000   1.0000000
B2   B   0.777618775689778   0.888740093235223   0.875000000000000   1.0000000
B2   B   0.944621521538979   0.388884655324234   0.875000000000000   1.0000000
B2   B   0.110398389998085   0.388418890237539   0.375000000000000   1.0000000
B2   B   0.278071211244617   0.889205683651141   0.375000000000000   1.0000000
B2   B   0.611473764807122   0.889935839117493   0.375000000000000   1.0000000
B2   B   0.442324412366802   0.387655480819302   0.375000000000000   1.0000000
B2   B   0.944473763718936   0.888920594998596   0.375000000000000   1.0000000
B2   B   0.777435195386303   0.388577930234199   0.375000000000000   1.0000000
B2   B   0.277934281633850   0.555557415657121   0.875000000000000   1.0000000
B2   B   0.110928572818051   0.055373269731306   0.875000000000000   1.0000000
B2   B   0.610960757389878   0.555425608814628   0.875000000000000   1.0000000
B2   B   0.444443235628361   0.055701440903934   0.875000000000000   1.0000000
B2   B   0.944455986290063   0.555717134441016   0.875000000000000   1.0000000
B2   B   0.110743153111637   0.555345440401696   0.375000000000000   1.0000000
B2   B   0.777951992231164   0.055553155669359   0.875000000000000   1.0000000
B2   B   0.277949895823048   0.055789065645919   0.375000000000000   1.0000000
B2   B   0.439310041740473   0.553318309381554   0.375000000000000   1.0000000
B2   B   0.780681212285461   0.555549253455388   0.375000000000000   1.0000000
B2   B   0.611240962152888   0.056546239010817   0.375000000000000   1.0000000
B2   B   0.444437019344746   0.555728746825865   0.875000000000000   1.0000000
B2   B   0.944597141036622   0.055888588934692   0.375000000000000   1.0000000
B2   B   0.277781451095380   0.722396236395348   0.875000000000000   1.0000000
B2   B   0.111254064037833   0.222209041094620   0.875000000000000   1.0000000
B2   B   0.444272385335171   0.222030120884916   0.875000000000000   1.0000000
B2   B   0.611278523540535   0.722242605247591   0.875000000000000   1.0000000
B2   B   0.944289588752563   0.722064985158504   0.875000000000000   1.0000000
B2   B   0.777783638019354   0.222372267550357   0.875000000000000   1.0000000
B2   B   0.111415950623521   0.722388736292648   0.375000000000000   1.0000000
B2   B   0.444617256775525   0.722308976013646   0.375000000000000   1.0000000
B2   B   0.277357488573295   0.222237128032883   0.375000000000000   1.0000000
B2   B   0.777547446269762   0.721964644586446   0.375000000000000   1.0000000
B2   B   0.611462341338465   0.223793247180344   0.375000000000000   1.0000000
B2   B   0.944108388537958   0.222162774919822   0.375000000000000   1.0000000
B2   B   0.111094399757002   0.389050379629800   0.875000000000000   1.0000000
B2   B   0.277614274190929   0.888712073400131   0.875000000000000   1.0000000
B2   B   0.611113795231764   0.889060071341707   0.875000000000000   1.0000000
B2   B   0.444575527611027   0.388884599644302   0.875000000000000   1.0000000
B2   B   0.944618933241397   0.888898559656905   0.875000000000000   1.0000000
B2   B   0.111413255171274   0.889193516741342   0.375000000000000   1.0000000
B2   B   0.777629487727014   0.388707314407578   0.875000000000000   1.0000000
B2   B   0.444736206895326   0.889292609462061   0.375000000000000   1.0000000
B2   B   0.275770225904244   0.387055547400526   0.375000000000000   1.0000000
B2   B   0.276085411693053   0.555082973548186   0.375000000000000   1.0000000
B2   B   0.611128620540631   0.391213400559154   0.375000000000000   1.0000000
B2   B   0.778956362090014   0.890274164979470   0.375000000000000   1.0000000
B2   B   0.944076261744856   0.388698443119864   0.375000000000000   1.0000000
B2   B   0.110944649267954   0.555382093859573   0.875000000000000   1.0000000
B2   B   0.277931004780259   0.055539572245633   0.875000000000000   1.0000000
B2   B   0.777960613485541   0.555572470377080   0.875000000000000   1.0000000
B2   B   0.610950416390055   0.055371713555669   0.875000000000000   1.0000000
B2   B   0.944433007163295   0.055719997241734   0.875000000000000   1.0000000
B2   B   0.055520000514758   0.111073426977024   0.125070109139416   1.0000000
B2   B   0.555515080631897   0.611218020494107   0.125290579600814   1.0000000
B2   B   0.388820075493396   0.110958683892418   0.125055366182491   1.0000000
B2   B   0.889026621358526   0.611165776704478   0.125089040006364   1.0000000
B2   B   0.722213330890219   0.111085931315960   0.125113726747516   1.0000000
B2   B   0.055616287436329   0.777792351476960   0.624872968633241   1.0000000
B2   B   0.388842796448086   0.777799995278225   0.624861249672539   1.0000000
B2   B   0.222133412924739   0.277726266944360   0.624964958506381   1.0000000
B2   B   0.722249947713784   0.777860901940733   0.624862953626498   1.0000000
B2   B   0.555538515708232   0.277649896078977   0.624849112752286   1.0000000
B2   B   0.888904702663530   0.277776643517496   0.624923223541404   1.0000000
B2   B   0.222216861978867   0.777770858210236   0.125066156810629   1.0000000
B2   B   0.055520263084758   0.277772990193810   0.125105881495321   1.0000000
B2   B   0.388788373481817   0.277633087141061   0.125148422908838   1.0000000
B2   B   0.555523136649251   0.777849388709534   0.125172141309617   1.0000000
B2   B   0.888976916135143   0.777836659992924   0.125146422598356   1.0000000
B2   B   0.722256579256344   0.277734718716942   0.125036005658176   1.0000000
B2   B   0.055562241189292   0.944418169201442   0.624953019773182   1.0000000
B2   B   0.388848922355652   0.944378507943596   0.624877558076770   1.0000000
B2   B   0.222144905430956   0.444469923054054   0.624939435734185   1.0000000
B2   B   0.555556947684484   0.444413117740649   0.624784586970876   1.0000000
B2   B   0.722211121911890   0.944467682522093   0.624916676527978   1.0000000
B2   B   0.888972747788508   0.444462683168649   0.624906967502174   1.0000000
B2   B   0.055556283536137   0.444466424173211   0.125038077547530   1.0000000
B2   B   0.222195967611728   0.944370145060863   0.125076760839363   1.0000000
B2   B   0.555525812484077   0.944432308842384   0.125062734355652   1.0000000
B2   B   0.388783343181288   0.444469432050458   0.125173242408519   1.0000000
B2   B   0.888903652649433   0.944464423452871   0.125122433026643   1.0000000
B2   B   0.722340432865206   0.444449760889162   0.125139144572726   1.0000000
B2   B   0.222185899093526   0.611143889384182   0.624875896875284   1.0000000
B2   B   0.055520000514758   0.111073426977024   0.624929890860584   1.0000000
B2   B   0.555515080631897   0.611218020494107   0.624709420399186   1.0000000
B2   B   0.388820075493396   0.110958683892418   0.624944633817511   1.0000000
B2   B   0.889026621358526   0.611165776704478   0.624910959993635   1.0000000
B2   B   0.055607995752373   0.611139616817657   0.125077418959443   1.0000000
B2   B   0.722213330890219   0.111085931315960   0.624886273252484   1.0000000
B2   B   0.222150740354780   0.111000310321523   0.125090947698866   1.0000000
B2   B   0.388802020571998   0.611178412896746   0.125096723854344   1.0000000
B2   B   0.722350421821503   0.611200330939510   0.125307071879939   1.0000000
B2   B   0.555526826295021   0.111018644126123   0.125074167381529   1.0000000
B2   B   0.388802020571998   0.611178412896746   0.624903276145656   1.0000000
B2   B   0.888880164335240   0.111106093346011   0.125055004660711   1.0000000
B2   B   0.222216861978867   0.777770858210236   0.624933843189370   1.0000000
B2   B   0.055520263084758   0.277772990193810   0.624894118504678   1.0000000
B2   B   0.388788373481817   0.277633087141061   0.624851577091162   1.0000000
B2   B   0.555523136649251   0.777849388709534   0.624827858690384   1.0000000
B2   B   0.888976916135143   0.777836659992924   0.624853577401644   1.0000000
B2   B   0.722256579256344   0.277734718716942   0.624963994341825   1.0000000
B2   B   0.055616287436329   0.777792351476960   0.125127031366759   1.0000000
B2   B   0.388842796448086   0.777799995278225   0.125138750327461   1.0000000
B2   B   0.222133412924739   0.277726266944360   0.125035041493619   1.0000000
B2   B   0.722249947713784   0.777860901940733   0.125137046373502   1.0000000
B2   B   0.555538515708232   0.277649896078977   0.125150887247713   1.0000000
B2   B   0.888904702663530   0.277776643517496   0.125076776458596   1.0000000
B2   B   0.055556283536137   0.444466424173211   0.624961922452469   1.0000000
B2   B   0.222195967611728   0.944370145060863   0.624923239160636   1.0000000
B2   B   0.555525812484077   0.944432308842384   0.624937265644347   1.0000000
B2   B   0.388783343181288   0.444469432050458   0.624826757591481   1.0000000
B2   B   0.888903652649433   0.944464423452871   0.624877566973357   1.0000000
B2   B   0.055562241189292   0.944418169201442   0.125046980226817   1.0000000
B2   B   0.722340432865206   0.444449760889162   0.624860855427274   1.0000000
B2   B   0.388848922355652   0.944378507943596   0.125122441923230   1.0000000
B2   B   0.222144905430956   0.444469923054054   0.125060564265815   1.0000000
B2   B   0.222185899093526   0.611143889384182   0.125124103124716   1.0000000
B2   B   0.555556947684484   0.444413117740649   0.125215413029124   1.0000000
B2   B   0.722211121911890   0.944467682522093   0.125083323472022   1.0000000
B2   B   0.888972747788508   0.444462683168649   0.125093032497826   1.0000000
B2   B   0.055607995752373   0.611139616817657   0.624922581040557   1.0000000
B2   B   0.222150740354780   0.111000310321523   0.624909052301134   1.0000000
B2   B   0.722350421821503   0.611200330939510   0.624692928120061   1.0000000
B2   B   0.555526826295021   0.111018644126123   0.624925832618471   1.0000000
B2   B   0.888880164335240   0.111106093346011   0.624944995339289   1.0000000
C2   C   0.555193734155995   0.606344641564671   0.375000000000000   1.0000000


