data_1
_audit_creation_method   'vasp2cif'
_cell_length_a    17.52789999999977
_cell_length_b    17.52789999999977
_cell_length_c    15.0
_cell_angle_alpha    90.0
_cell_angle_beta    90.0
_cell_angle_gamma    119.99999999999916

_symmetry_space_group_name_H-M    'P 1'
loop_
_atom_site_label
_atom_site_type_symbol
_atom_site_fract_x
_atom_site_fract_y
_atom_site_fract_z
_atom_site_occupancy
B2   B   0.911030692199604   0.955263433705288   0.110735718348437   1.0000000
B2   B   0.909313024260641   0.096333695296188   0.110793153108316   1.0000000
B2   B   0.908487887794789   0.238260103044017   0.110686841852109   1.0000000
B2   B   0.908125399973545   0.380909763393570   0.110568920175987   1.0000000
B2   B   0.906841431375948   0.523685944799457   0.110718339249261   1.0000000
B2   B   0.905987957257191   0.666312698294781   0.110870055886982   1.0000000
B2   B   0.906915896997646   0.808957126324896   0.110783883652338   1.0000000
B2   B   0.051986954959978   0.954441920383567   0.110744469678689   1.0000000
B2   B   0.053124484059492   0.097551876059887   0.110827228778893   1.0000000
B2   B   0.051498113135388   0.238797616291788   0.110909740652759   1.0000000
B2   B   0.050037573201404   0.381318961861408   0.110756355294285   1.0000000
B2   B   0.048680926919553   0.524661962229270   0.110670055770594   1.0000000
B2   B   0.048876986644115   0.667826915408797   0.110721435105547   1.0000000
B2   B   0.050201558403894   0.810939219812229   0.110756217942676   1.0000000
B2   B   0.194389787812049   0.955130655361426   0.110695930099462   1.0000000
B2   B   0.197088579317774   0.099730769763391   0.110797104084538   1.0000000
B2   B   0.195623805172862   0.240182691392904   0.110937645316290   1.0000000
B2   B   0.192341038164184   0.381140669769729   0.110876790188473   1.0000000
B2   B   0.189325080963412   0.524785106631778   0.110778805926560   1.0000000
B2   B   0.190611907825686   0.668480042378421   0.110728926389887   1.0000000
B2   B   0.192753460021346   0.811628719413489   0.110689499475857   1.0000000
B2   B   0.336562202600625   0.954646894150404   0.110641095708505   1.0000000
B2   B   0.338384762883910   0.098923462260111   0.110763947277214   1.0000000
B2   B   0.344074249798562   0.247011896531023   0.110953476319385   1.0000000
B2   B   0.337250167106396   0.381249263153831   0.110855283135584   1.0000000
B2   B   0.327922526290055   0.524968397026059   0.110780003007485   1.0000000
B2   B   0.331107539838337   0.668867230573235   0.110749806777696   1.0000000
B2   B   0.335228332833722   0.811556311235880   0.110736635858283   1.0000000
B2   B   0.478982716680257   0.952746014241213   0.110676882485527   1.0000000
B2   B   0.480044508609630   0.095939511345551   0.110694533656378   1.0000000
B2   B   0.482098429408675   0.239943506675202   0.110912090743343   1.0000000
B2   B   0.500502903169953   0.397536815213750   0.111136554756218   1.0000000
B2   B   0.469091016493859   0.665185787865020   0.110748643950466   1.0000000
B2   B   0.478183372151014   0.809525076408119   0.110715368491242   1.0000000
B2   B   0.622180435218162   0.953429198203953   0.110651651129499   1.0000000
B2   B   0.622497619403211   0.094854589771644   0.110596038973684   1.0000000
B2   B   0.623350540346324   0.236415204477376   0.110657202656788   1.0000000
B2   B   0.625260073034796   0.376938635005782   0.110980170797341   1.0000000
B2   B   0.603875370810093   0.497824587502946   0.111135608124489   1.0000000
B2   B   0.623174282697024   0.813024056614597   0.110488787069611   1.0000000
B2   B   0.766609887852908   0.954147109591447   0.110695275007045   1.0000000
B2   B   0.765721635616757   0.095510296746381   0.110637126688198   1.0000000
B2   B   0.765835445443479   0.237490658029308   0.110516911767770   1.0000000
B2   B   0.766411223018036   0.379749348227172   0.110653274865775   1.0000000
B2   B   0.763311960413887   0.520894876571467   0.110944451144520   1.0000000
B2   B   0.760342444261915   0.661061669983237   0.110808223110542   1.0000000
B2   B   0.771095768809312   0.814499606524989   0.110537972744641   1.0000000
S2   S   0.612903661172217   0.661806478078210   0.110397830690190   1.0000000
N2   N   0.956089445336911   0.905423545305655   0.110722619457204   1.0000000
N2   N   0.957965661722849   0.049889282064131   0.110772627698822   1.0000000
N2   N   0.956494529950972   0.191168381089289   0.110817932241940   1.0000000
N2   N   0.955620346310818   0.333343952751749   0.110633062770953   1.0000000
N2   N   0.954492126033952   0.476265050056420   0.110604995611413   1.0000000
N2   N   0.954027501047878   0.619322565100031   0.110769001309938   1.0000000
N2   N   0.954661676084646   0.762104393569596   0.110811522336365   1.0000000
N2   N   0.098877953270102   0.906513679399293   0.110705548736241   1.0000000
N2   N   0.100833745551364   0.050385478135098   0.110745887940718   1.0000000
N2   N   0.100251242411117   0.192440292410977   0.110913027272284   1.0000000
N2   N   0.097907237195021   0.333820884108764   0.110858042443156   1.0000000
N2   N   0.095621799211278   0.476669907918146   0.110710281533881   1.0000000
N2   N   0.096106573281351   0.620114873560381   0.110681171999058   1.0000000
N2   N   0.097503564735326   0.763305942813906   0.110706741538385   1.0000000
N2   N   0.241244149927551   0.906822653429845   0.110634651249162   1.0000000
N2   N   0.242907921247767   0.050588516942710   0.110709237613199   1.0000000
N2   N   0.246166422115535   0.195952557014811   0.110888091908032   1.0000000
N2   N   0.241931366766001   0.335094695367894   0.110898800192583   1.0000000
N2   N   0.235530410785898   0.476391119576640   0.110827016951142   1.0000000
N2   N   0.237186218541877   0.620295254542334   0.110740455335324   1.0000000
N2   N   0.239986838789430   0.763667010713855   0.110703128540940   1.0000000
N2   N   0.383719969127455   0.906218446961612   0.110667163437888   1.0000000
N2   N   0.384750017110193   0.049557618462033   0.110664255335245   1.0000000
N2   N   0.386754621011307   0.194150472051719   0.110877181013238   1.0000000
N2   N   0.394603335195895   0.344684061434833   0.110986011805571   1.0000000
N2   N   0.373611991420796   0.476553396947482   0.110651231341795   1.0000000
N2   N   0.376577816400513   0.619779476634964   0.110726259683542   1.0000000
N2   N   0.382605588865759   0.763332576384957   0.110754317418672   1.0000000
N2   N   0.526512661602976   0.904392214867054   0.110660595067685   1.0000000
N2   N   0.527181688964060   0.047436815464741   0.110635681151147   1.0000000
N2   N   0.528329642091225   0.190312612663832   0.110734681474271   1.0000000
N2   N   0.531351356062331   0.333361052421455   0.111046561899205   1.0000000
N2   N   0.460168424934182   0.517952349632944   0.110275656365424   1.0000000
N2   N   0.499823806153610   0.599932820445699   0.110612943898322   1.0000000
N2   N   0.525787736392555   0.759798857001402   0.110649721100534   1.0000000
N2   N   0.670484066958711   0.907025078229986   0.110630674374332   1.0000000
N2   N   0.670286331066738   0.047710228805051   0.110597274642602   1.0000000
N2   N   0.670835469488499   0.189135090541664   0.110520108644328   1.0000000
N2   N   0.672441910975147   0.330332218130925   0.110712180158508   1.0000000
N2   N   0.670113847141845   0.470744825144079   0.111069369154916   1.0000000
N2   N   0.662722118480097   0.604370584668489   0.110756751635987   1.0000000
N2   N   0.678796235452547   0.775451865661711   0.110128475101948   1.0000000
N2   N   0.816412482781864   0.908634853203218   0.110679483146402   1.0000000
N2   N   0.813927376255580   0.048652733075289   0.110716101521258   1.0000000
N2   N   0.813535965760023   0.190234964268156   0.110569107756138   1.0000000
N2   N   0.813831217748437   0.332420235112102   0.110496262805474   1.0000000
N2   N   0.812654282596196   0.474965567390432   0.110746428650969   1.0000000
N2   N   0.810704328346201   0.617153584883404   0.110908841153486   1.0000000
N2   N   0.810474340785367   0.759440989124696   0.110709001873007   1.0000000


