data_1
_audit_creation_method   'vasp2cif'
_cell_length_a    14.93631414619966
_cell_length_b    14.936314146199727
_cell_length_c    13.341276283792837
_cell_angle_alpha    90.0
_cell_angle_beta    90.0
_cell_angle_gamma    119.99999999999984

_symmetry_space_group_name_H-M    'P 1'
loop_
_atom_site_label
_atom_site_type_symbol
_atom_site_fract_x
_atom_site_fract_y
_atom_site_fract_z
_atom_site_occupancy
In2   In   0.492922469532420   0.413127901432874   0.375000000000000   1.0000000
N2   N   0.111151940398172   0.055581538016995   0.124903887154866   1.0000000
N2   N   0.611295026147124   0.555780894991254   0.121633023267606   1.0000000
N2   N   0.444525545338202   0.055584785127470   0.124882286253174   1.0000000
N2   N   0.944483795583379   0.555562930650793   0.124943280825691   1.0000000
N2   N   0.777857683989912   0.055595508661624   0.124834027679266   1.0000000
N2   N   0.111151346317886   0.722242339825606   0.625095972346920   1.0000000
N2   N   0.444525545338202   0.722274093544068   0.625117713746825   1.0000000
N2   N   0.277795653336730   0.222226508373457   0.625536906229864   1.0000000
N2   N   0.777857609805791   0.722311960771227   0.625530558393309   1.0000000
N2   N   0.611209553935376   0.222213740776634   0.625659496726524   1.0000000
N2   N   0.944503847152201   0.222241295503611   0.625116180012006   1.0000000
N2   N   0.277837612883727   0.722249405479530   0.124922045241829   1.0000000
N2   N   0.111147226079246   0.222240279706288   0.124839932037501   1.0000000
N2   N   0.444549016746331   0.222259735215238   0.124204826575103   1.0000000
N2   N   0.611209553935376   0.722329146492070   0.124340503273476   1.0000000
N2   N   0.944483795583379   0.722254198265922   0.124943280825691   1.0000000
N2   N   0.777860043990065   0.222223916730146   0.124863798977935   1.0000000
N2   N   0.111158250221002   0.888922747134363   0.625063541361822   1.0000000
N2   N   0.444517802752392   0.888925568042860   0.625096118777152   1.0000000
N2   N   0.277795653336730   0.388902478296603   0.625536906229864   1.0000000
N2   N   0.611295026147124   0.388847464489198   0.628366976732394   1.0000000
N2   N   0.777860043990065   0.888969460593248   0.625136201022065   1.0000000
N2   N   0.944500695378017   0.388894798087077   0.625015352895077   1.0000000
N2   N   0.111151940398172   0.388903735714506   0.124903887154866   1.0000000
N2   N   0.277837612883727   0.888921540737527   0.124922045241829   1.0000000
N2   N   0.611193041837710   0.888950589492834   0.124898199372050   1.0000000
N2   N   0.444422737353308   0.388878035343319   0.123729616026916   1.0000000
N2   N   0.944500695378017   0.888939230624269   0.124984647104923   1.0000000
N2   N   0.777857609805791   0.388878982367892   0.124469441606691   1.0000000
N2   N   0.277848678344049   0.555585189757148   0.625058424798830   1.0000000
N2   N   0.111151940398172   0.055581538016995   0.625096112845133   1.0000000
N2   N   0.611295026147124   0.555780894991254   0.628366976732394   1.0000000
N2   N   0.444525545338202   0.055584785127470   0.625117713746825   1.0000000
N2   N   0.944483795583379   0.555562930650793   0.625056719174309   1.0000000
N2   N   0.111158250221002   0.555568836419968   0.124936458638177   1.0000000
N2   N   0.777857683989912   0.055595508661624   0.625165972320735   1.0000000
N2   N   0.277848678344049   0.055596821920237   0.124941575201169   1.0000000
N2   N   0.444549016746331   0.555622614864428   0.124204826575103   1.0000000
N2   N   0.777837341420351   0.555585337376844   0.124023007885688   1.0000000
N2   N   0.611193041837710   0.055575785678205   0.124898199372050   1.0000000
N2   N   0.444549016746331   0.555622614864428   0.625795173424896   1.0000000
N2   N   0.944503847152201   0.055595884981928   0.124883819987994   1.0000000
N2   N   0.277837612883727   0.722249405479530   0.625077954758171   1.0000000
N2   N   0.111147226079246   0.222240279706288   0.625160067962500   1.0000000
N2   N   0.444549016746331   0.222259735215238   0.625795173424896   1.0000000
N2   N   0.611209553935376   0.722329146492070   0.625659496726524   1.0000000
N2   N   0.944483795583379   0.722254198265922   0.625056719174309   1.0000000
N2   N   0.777860043990065   0.222223916730146   0.625136201022065   1.0000000
N2   N   0.111151346317886   0.722242339825606   0.124904027653081   1.0000000
N2   N   0.444525545338202   0.722274093544068   0.124882286253174   1.0000000
N2   N   0.277795653336730   0.222226508373457   0.124463093770135   1.0000000
N2   N   0.777857609805791   0.722311960771227   0.124469441606691   1.0000000
N2   N   0.611209553935376   0.222213740776634   0.124340503273476   1.0000000
N2   N   0.944503847152201   0.222241295503611   0.124883819987994   1.0000000
N2   N   0.111151940398172   0.388903735714506   0.625096112845133   1.0000000
N2   N   0.277837612883727   0.888921540737527   0.625077954758171   1.0000000
N2   N   0.611193041837710   0.888950589492834   0.625101800627950   1.0000000
N2   N   0.444422737353308   0.388878035343319   0.626270383973083   1.0000000
N2   N   0.944500695378017   0.888939230624269   0.625015352895077   1.0000000
N2   N   0.111158250221002   0.888922747134363   0.124936458638177   1.0000000
N2   N   0.777857609805791   0.388878982367892   0.625530558393309   1.0000000
N2   N   0.444517802752392   0.888925568042860   0.124903881222847   1.0000000
N2   N   0.277795653336730   0.388902478296603   0.124463093770135   1.0000000
N2   N   0.277848678344049   0.555585189757148   0.124941575201169   1.0000000
N2   N   0.611295026147124   0.388847464489198   0.121633023267606   1.0000000
N2   N   0.777860043990065   0.888969460593248   0.124863798977935   1.0000000
N2   N   0.944500695378017   0.388894798087077   0.124984647104923   1.0000000
N2   N   0.111158250221002   0.555568836419968   0.625063541361822   1.0000000
N2   N   0.277848678344049   0.055596821920237   0.625058424798830   1.0000000
N2   N   0.777837341420351   0.555585337376844   0.625976992114310   1.0000000
N2   N   0.611193041837710   0.055575785678205   0.625101800627950   1.0000000
N2   N   0.944503847152201   0.055595884981928   0.625116180012006   1.0000000
N2   N   0.056160588435814   0.111465550991732   0.375000000000000   1.0000000
N2   N   0.554437818629261   0.618903900485874   0.375000000000000   1.0000000
N2   N   0.386175845323902   0.102592582141031   0.375000000000000   1.0000000
N2   N   0.887263533626705   0.610298433480023   0.375000000000000   1.0000000
N2   N   0.722673578979090   0.110522933400489   0.375000000000000   1.0000000
N2   N   0.055566997449068   0.777782479254133   0.875000000000000   1.0000000
N2   N   0.388886527643036   0.777781665111239   0.875000000000000   1.0000000
N2   N   0.222226850101878   0.277780091717607   0.875000000000000   1.0000000
N2   N   0.722224852806672   0.777775176584091   0.875000000000000   1.0000000
N2   N   0.555546409635091   0.277762610763581   0.875000000000000   1.0000000
N2   N   0.888893553839803   0.277785385709808   0.875000000000000   1.0000000
N2   N   0.219591525724608   0.776462429528971   0.375000000000000   1.0000000
N2   N   0.056160588435814   0.278028370777418   0.375000000000000   1.0000000
N2   N   0.384303734320422   0.261995935609156   0.375000000000000   1.0000000
N2   N   0.554800519789713   0.781280595753405   0.375000000000000   1.0000000
N2   N   0.888514974971596   0.778167650535949   0.375000000000000   1.0000000
N2   N   0.722646452483399   0.275958634240000   0.375000000000000   1.0000000
N2   N   0.055558804972504   0.944441568841538   0.875000000000000   1.0000000
N2   N   0.388886527643036   0.944438195865133   0.875000000000000   1.0000000
N2   N   0.222222004907190   0.444450561801034   0.875000000000000   1.0000000
N2   N   0.555550651409958   0.444441992371643   0.875000000000000   1.0000000
N2   N   0.722220651701350   0.944441946179833   0.875000000000000   1.0000000
N2   N   0.888902241815609   0.444454501033130   0.875000000000000   1.0000000
N2   N   0.054141462612152   0.444345848361697   0.375000000000000   1.0000000
N2   N   0.219477483541281   0.941234156563675   0.375000000000000   1.0000000
N2   N   0.554881824633865   0.944107578983597   0.375000000000000   1.0000000
N2   N   0.384303734320423   0.455641132044603   0.375000000000000   1.0000000
N2   N   0.889336939021826   0.945307943912449   0.375000000000000   1.0000000
N2   N   0.723218284403570   0.443268434288960   0.375000000000000   1.0000000
N2   N   0.222220882661796   0.611116044076970   0.875000000000000   1.0000000
N2   N   0.055557654295782   0.111109241138605   0.875000000000000   1.0000000
N2   N   0.555546409635091   0.611117132204844   0.875000000000000   1.0000000
N2   N   0.388883596107951   0.111096710251154   0.875000000000000   1.0000000
N2   N   0.888915612980644   0.611124473156993   0.875000000000000   1.0000000
N2   N   0.053348452003023   0.610368594509246   0.375000000000000   1.0000000
N2   N   0.722220651701350   0.111112038854855   0.875000000000000   1.0000000
N2   N   0.219628301245594   0.107200273778768   0.375000000000000   1.0000000
N2   N   0.386175845323902   0.616916596516214   0.375000000000000   1.0000000
N2   N   0.723218284403570   0.613283183447946   0.375000000000000   1.0000000
N2   N   0.554800519789713   0.106853257369644   0.375000000000000   1.0000000
N2   N   0.388883596107951   0.611120219190141   0.875000000000000   1.0000000
N2   N   0.889651599841279   0.111492466587311   0.375000000000000   1.0000000
N2   N   0.222225183625884   0.777779258479610   0.875000000000000   1.0000000
N2   N   0.055557654295782   0.277781746490513   0.875000000000000   1.0000000
N2   N   0.388891704519681   0.277769981818063   0.875000000000000   1.0000000
N2   N   0.555550428389629   0.777779700818336   0.875000000000000   1.0000000
N2   N   0.888902241815609   0.777781074115815   0.875000000000000   1.0000000
N2   N   0.722224852806672   0.277783009555917   0.875000000000000   1.0000000
N2   N   0.053348452003023   0.776313190827112   0.375000000000000   1.0000000
N2   N   0.386738661874596   0.778874716025791   0.375000000000000   1.0000000
N2   N   0.223968919783453   0.278651126558395   0.375000000000000   1.0000000
N2   N   0.722646452483399   0.780021151576735   0.375000000000000   1.0000000
N2   N   0.554437818629261   0.268867251476721   0.375000000000000   1.0000000
N2   N   0.889336939021826   0.277362328442713   0.375000000000000   1.0000000
N2   N   0.055558804972504   0.444450569464295   0.875000000000000   1.0000000
N2   N   0.222220882661796   0.944438171918161   0.875000000000000   1.0000000
N2   N   0.555550761796829   0.944442047565080   0.875000000000000   1.0000000
N2   N   0.388891704519681   0.444455056034955   0.875000000000000   1.0000000
N2   N   0.888893553839803   0.944441501463330   0.875000000000000   1.0000000
N2   N   0.054141462612152   0.943128947583783   0.375000000000000   1.0000000
N2   N   0.722243135987379   0.444458602504385   0.875000000000000   1.0000000
N2   N   0.386738661874596   0.941197279182143   0.375000000000000   1.0000000
N2   N   0.219628301245594   0.445761360800162   0.375000000000000   1.0000000
N2   N   0.219477483541281   0.611576660310941   0.375000000000000   1.0000000
N2   N   0.722673578979090   0.945483978911937   0.375000000000000   1.0000000
N2   N   0.888514974971596   0.443680657768981   0.375000000000000   1.0000000
N2   N   0.055566997449068   0.611117851528269   0.875000000000000   1.0000000
N2   N   0.222222004907190   0.111104776439492   0.875000000000000   1.0000000
N2   N   0.722243135987379   0.611117866816330   0.875000000000000   1.0000000
N2   N   0.555550428389629   0.111104060904627   0.875000000000000   1.0000000
N2   N   0.888891403643262   0.111112368488302   0.875000000000000   1.0000000
B2   B   0.110018268722923   0.054080341442442   0.375000000000000   1.0000000
B2   B   0.613873443999854   0.567340793320335   0.375000000000000   1.0000000
B2   B   0.443355847897314   0.050859099738096   0.375000000000000   1.0000000
B2   B   0.942572498242559   0.554738361165705   0.375000000000000   1.0000000
B2   B   0.778684697918569   0.056009015625952   0.375000000000000   1.0000000
B2   B   0.111112886469650   0.722223109901489   0.875000000000000   1.0000000
B2   B   0.444439552716715   0.722191609937760   0.875000000000000   1.0000000
B2   B   0.277833434858012   0.222261366301625   0.875000000000000   1.0000000
B2   B   0.777745432722645   0.722165952105080   0.875000000000000   1.0000000
B2   B   0.611082587830237   0.222256993473432   0.875000000000000   1.0000000
B2   B   0.944462742605446   0.222238381453940   0.875000000000000   1.0000000
B2   B   0.275651378192443   0.722119260634598   0.375000000000000   1.0000000
B2   B   0.113312801972335   0.223323067652832   0.375000000000000   1.0000000
B2   B   0.441483156009907   0.212149144185599   0.375000000000000   1.0000000
B2   B   0.611101230825394   0.727291346864951   0.375000000000000   1.0000000
B2   B   0.942572498242559   0.721167470410188   0.375000000000000   1.0000000
B2   B   0.778401194238979   0.221447132308689   0.375000000000000   1.0000000
B2   B   0.111122265147350   0.888898004524446   0.875000000000000   1.0000000
B2   B   0.444436763105835   0.888885048219582   0.875000000000000   1.0000000
B2   B   0.277833434858012   0.388905401889716   0.875000000000000   1.0000000
B2   B   0.611076820738950   0.388909144503825   0.875000000000000   1.0000000
B2   B   0.777763422898276   0.888851741933767   0.875000000000000   1.0000000
B2   B   0.944446994199662   0.388904854525465   0.875000000000000   1.0000000
B2   B   0.110018268722923   0.389271260613809   0.375000000000000   1.0000000
B2   B   0.275651378192443   0.886865450891172   0.375000000000000   1.0000000
B2   B   0.611419029852842   0.890668360457373   0.375000000000000   1.0000000
B2   B   0.943830844788714   0.888826063366929   0.375000000000000   1.0000000
B2   B   0.777981753836410   0.387522650589288   0.375000000000000   1.0000000
B2   B   0.277800877498044   0.555546651167785   0.875000000000000   1.0000000
B2   B   0.111145867424042   0.055577329581942   0.875000000000000   1.0000000
B2   B   0.611076820738950   0.555501009568454   0.875000000000000   1.0000000
B2   B   0.444439552716715   0.055581276112291   0.875000000000000   1.0000000
B2   B   0.944433811078505   0.555559744666692   0.875000000000000   1.0000000
B2   B   0.108958938160061   0.555255037025004   0.375000000000000   1.0000000
B2   B   0.777772876686293   0.055553105009814   0.875000000000000   1.0000000
B2   B   0.275484961606873   0.051863816530270   0.375000000000000   1.0000000
B2   B   0.441483156009907   0.562667345157644   0.375000000000000   1.0000000
B2   B   0.775874160102722   0.554603746718030   0.375000000000000   1.0000000
B2   B   0.611419029852842   0.054084002728798   0.375000000000000   1.0000000
B2   B   0.444457965195031   0.555529373111298   0.875000000000000   1.0000000
B2   B   0.945470983494959   0.056367188952143   0.375000000000000   1.0000000
B2   B   0.277783476522956   0.722214818138903   0.875000000000000   1.0000000
B2   B   0.111163194750329   0.222248264041829   0.875000000000000   1.0000000
B2   B   0.444457965195031   0.222261925417069   0.875000000000000   1.0000000
B2   B   0.611082587830237   0.722158927690134   0.875000000000000   1.0000000
B2   B   0.944433811078505   0.722207399745147   0.875000000000000   1.0000000
B2   B   0.777763422898276   0.222245014297838   0.875000000000000   1.0000000
B2   B   0.108788449618165   0.721060891475747   0.375000000000000   1.0000000
B2   B   0.443355847897314   0.725830081492554   0.375000000000000   1.0000000
B2   B   0.277735602868626   0.219199788641644   0.375000000000000   1.0000000
B2   B   0.777981753836410   0.723792436580452   0.375000000000000   1.0000000
B2   B   0.611101230825394   0.217143217293771   0.375000000000000   1.0000000
B2   B   0.945470983494959   0.222437127876152   0.375000000000000   1.0000000
B2   B   0.111145867424042   0.388901871175429   0.875000000000000   1.0000000
B2   B   0.277783476522956   0.888901991717381   0.875000000000000   1.0000000
B2   B   0.611094452026402   0.888862338808909   0.875000000000000   1.0000000
B2   B   0.444485894073606   0.388909613703467   0.875000000000000   1.0000000
B2   B   0.944446994199662   0.888875473007527   0.875000000000000   1.0000000
B2   B   0.108958938160061   0.887037234468387   0.375000000000000   1.0000000
B2   B   0.777745432722645   0.388912813950894   0.875000000000000   1.0000000
B2   B   0.443505600183376   0.888419466758352   0.375000000000000   1.0000000
B2   B   0.277735602868626   0.391869147560311   0.375000000000000   1.0000000
B2   B   0.275484961606873   0.556954478409938   0.375000000000000   1.0000000
B2   B   0.613873443999854   0.379865984012848   0.375000000000000   1.0000000
B2   B   0.778401194238979   0.890287395263619   0.375000000000000   1.0000000
B2   B   0.943830844788714   0.388338114755116   0.375000000000000   1.0000000
B2   B   0.111122265147350   0.555557593956234   0.875000000000000   1.0000000
B2   B   0.277800877498044   0.055587559663595   0.875000000000000   1.0000000
B2   B   0.777742909696583   0.555538121514958   0.875000000000000   1.0000000
B2   B   0.611094452026402   0.055565446550821   0.875000000000000   1.0000000
B2   B   0.944462742605446   0.055557694484843   0.875000000000000   1.0000000
B2   B   0.055673983846626   0.111200348071253   0.125126051299730   1.0000000
B2   B   0.555676294603787   0.611048837321427   0.123890468920086   1.0000000
B2   B   0.389034195708553   0.111315416159573   0.125115492615893   1.0000000
B2   B   0.888775600766984   0.611054467050163   0.124964741259067   1.0000000
B2   B   0.722288784059736   0.111147156651320   0.125041898600241   1.0000000
B2   B   0.055563571010660   0.777807566132074   0.624896671323014   1.0000000
B2   B   0.388993162923582   0.777780749728782   0.624894673793890   1.0000000
B2   B   0.222388512432597   0.277860922882966   0.624921625256154   1.0000000
B2   B   0.722235173511299   0.777770467963519   0.625200769036873   1.0000000
B2   B   0.555676294603787   0.277960790615696   0.626109531079913   1.0000000
B2   B   0.888944526630291   0.277782118103141   0.624905362100735   1.0000000
B2   B   0.222292297662439   0.777812815497889   0.125055538423548   1.0000000
B2   B   0.055673983846626   0.277806969108710   0.125126051299730   1.0000000
B2   B   0.388978282443695   0.277855209293780   0.124862516602822   1.0000000
B2   B   0.555642575849998   0.777762215447188   0.125009245459661   1.0000000
B2   B   0.888864795100690   0.777783804688804   0.125039603799420   1.0000000
B2   B   0.722235173511299   0.277798038881117   0.124799230963125   1.0000000
B2   B   0.055627704321925   0.944536054732679   0.624846934027737   1.0000000
B2   B   0.388993162923582   0.944545746528135   0.624894673793890   1.0000000
B2   B   0.222365286933474   0.444425769964039   0.624831352311688   1.0000000
B2   B   0.555783510234937   0.444558421784133   0.625375356622181   1.0000000
B2   B   0.722288784059736   0.944474960741751   0.624958101399760   1.0000000
B2   B   0.888864795100690   0.444414323745223   0.624960396200582   1.0000000
B2   B   0.055627704321925   0.444424982922574   0.125153065972262   1.0000000
B2   B   0.222326959994822   0.944579933588041   0.125153062298320   1.0000000
B2   B   0.555642440305728   0.944487886819530   0.125093344108385   1.0000000
B2   B   0.388978282443695   0.444456406483250   0.124862516602822   1.0000000
B2   B   0.888944526630291   0.944495741860486   0.125094637899265   1.0000000
B2   B   0.722100126973320   0.444385374368026   0.123720315710318   1.0000000
B2   B   0.222326959994822   0.611080359740118   0.624846937701680   1.0000000
B2   B   0.055673983846626   0.111200348071253   0.624873948700270   1.0000000
B2   B   0.555676294603787   0.611048837321427   0.626109531079913   1.0000000
B2   B   0.389034195708553   0.111315416159573   0.624884507384108   1.0000000
B2   B   0.888775600766984   0.611054467050163   0.625035258740934   1.0000000
B2   B   0.055563571010660   0.611089338211922   0.125103328676985   1.0000000
B2   B   0.722288784059736   0.111147156651320   0.624958101399760   1.0000000
B2   B   0.222365286933474   0.111272850302770   0.125168647688312   1.0000000
B2   B   0.389034195708553   0.611052112882322   0.125115492615893   1.0000000
B2   B   0.722100126973320   0.611048085938629   0.123720315710318   1.0000000
B2   B   0.555642575849998   0.111213693736146   0.125009245459661   1.0000000
B2   B   0.389034195708553   0.611052112882322   0.624884507384108   1.0000000
B2   B   0.888972586678727   0.111152960006035   0.125040046107561   1.0000000
B2   B   0.222292297662439   0.777812815497889   0.624944461576452   1.0000000
B2   B   0.055673983846626   0.277806969108710   0.624873948700270   1.0000000
B2   B   0.388978282443695   0.277855209293780   0.625137483397180   1.0000000
B2   B   0.555642575849998   0.777762215447188   0.624990754540339   1.0000000
B2   B   0.888864795100690   0.777783804688804   0.624960396200582   1.0000000
B2   B   0.722235173511299   0.277798038881117   0.625200769036873   1.0000000
B2   B   0.055563571010660   0.777807566132074   0.125103328676985   1.0000000
B2   B   0.388993162923582   0.777780749728782   0.125105326206110   1.0000000
B2   B   0.222388512432597   0.277860922882966   0.125078374743846   1.0000000
B2   B   0.722235173511299   0.777770467963519   0.124799230963125   1.0000000
B2   B   0.555676294603787   0.277960790615696   0.123890468920086   1.0000000
B2   B   0.888944526630291   0.277782118103141   0.125094637899265   1.0000000
B2   B   0.055627704321925   0.444424982922574   0.624846934027737   1.0000000
B2   B   0.222326959994822   0.944579933588041   0.624846937701680   1.0000000
B2   B   0.555642440305728   0.944487886819530   0.624906655891613   1.0000000
B2   B   0.388978282443695   0.444456406483250   0.625137483397180   1.0000000
B2   B   0.888944526630291   0.944495741860486   0.624905362100735   1.0000000
B2   B   0.055627704321925   0.944536054732679   0.125153065972262   1.0000000
B2   B   0.722100126973320   0.444385374368026   0.626279684289682   1.0000000
B2   B   0.388993162923582   0.944545746528135   0.125105326206110   1.0000000
B2   B   0.222365286933474   0.444425769964039   0.125168647688312   1.0000000
B2   B   0.222326959994822   0.611080359740118   0.125153062298320   1.0000000
B2   B   0.555783510234937   0.444558421784133   0.124624643377819   1.0000000
B2   B   0.722288784059736   0.944474960741751   0.125041898600241   1.0000000
B2   B   0.888864795100690   0.444414323745223   0.125039603799420   1.0000000
B2   B   0.055563571010660   0.611089338211922   0.624896671323014   1.0000000
B2   B   0.222365286933474   0.111272850302770   0.624831352311688   1.0000000
B2   B   0.722100126973320   0.611048085938629   0.626279684289682   1.0000000
B2   B   0.555642575849998   0.111213693736146   0.624990754540339   1.0000000
B2   B   0.888972586678727   0.111152960006035   0.624959953892439   1.0000000


