data_1
_audit_creation_method   'vasp2cif'
_cell_length_a    17.52789999999977
_cell_length_b    17.52789999999977
_cell_length_c    15.0
_cell_angle_alpha    90.0
_cell_angle_beta    90.0
_cell_angle_gamma    119.99999999999916

_symmetry_space_group_name_H-M    'P 1'
loop_
_atom_site_label
_atom_site_type_symbol
_atom_site_fract_x
_atom_site_fract_y
_atom_site_fract_z
_atom_site_occupancy
Sb2   Sb   0.412055696295891   0.475912474025719   0.110925067844973   1.0000000
B2   B   0.908571440804871   0.955095000730609   0.110594610124877   1.0000000
B2   B   0.907618974322399   0.097989547133806   0.110727905398276   1.0000000
B2   B   0.906985826853946   0.240673326151325   0.110750173079174   1.0000000
B2   B   0.905662538700391   0.382641133936069   0.110680107389819   1.0000000
B2   B   0.903890359415949   0.524348596643043   0.110771626059555   1.0000000
B2   B   0.906353466448879   0.666997090653026   0.110896126399462   1.0000000
B2   B   0.909063725922586   0.811970350761469   0.110726022254057   1.0000000
B2   B   0.048462577107608   0.950004909154663   0.110662565166263   1.0000000
B2   B   0.047355275836755   0.092575805817855   0.110851048504889   1.0000000
B2   B   0.049170379513463   0.238384499578626   0.110841901903356   1.0000000
B2   B   0.049739090320864   0.382081283172444   0.110657102365622   1.0000000
B2   B   0.048530382148125   0.524102615287764   0.110637026117867   1.0000000
B2   B   0.048666446226220   0.665761990399268   0.110732029993757   1.0000000
B2   B   0.048795854845632   0.807732307921573   0.110725628673438   1.0000000
B2   B   0.190347343590550   0.947623787172681   0.110590145378619   1.0000000
B2   B   0.187528538181042   0.086917026110612   0.110888671748915   1.0000000
B2   B   0.185576704003791   0.228494008600565   0.110855948072435   1.0000000
B2   B   0.193000690247954   0.379906109559316   0.110522713319388   1.0000000
B2   B   0.192686386819280   0.524544437467195   0.110674716667103   1.0000000
B2   B   0.192364015393988   0.666349772914424   0.110699719045868   1.0000000
B2   B   0.191557090410502   0.807272983585031   0.110586601308254   1.0000000
B2   B   0.334342919647969   0.948908458210401   0.110549561727187   1.0000000
B2   B   0.332223628966024   0.086229276012428   0.110895090787852   1.0000000
B2   B   0.326485505018514   0.218528867982991   0.111039216079999   1.0000000
B2   B   0.321196093804991   0.349689531897413   0.110078023761961   1.0000000
B2   B   0.336405682944748   0.535927855205578   0.110891269337407   1.0000000
B2   B   0.337260951320321   0.671813500791349   0.111021449380527   1.0000000
B2   B   0.335673494002971   0.810138174196731   0.110683299473008   1.0000000
B2   B   0.478930617536784   0.953004408801221   0.110623346100624   1.0000000
B2   B   0.477442708641513   0.092847948104623   0.110679215678438   1.0000000
B2   B   0.474703092251678   0.231499725443463   0.111107738482805   1.0000000
B2   B   0.465975294113883   0.364658350553562   0.110966347542621   1.0000000
B2   B   0.485080138233450   0.672370363130703   0.111152098114842   1.0000000
B2   B   0.480704989971553   0.812794753636334   0.110892875242094   1.0000000
B2   B   0.623077319647284   0.956957187215592   0.110638168731919   1.0000000
B2   B   0.621628414348884   0.097873568322840   0.110607671178110   1.0000000
B2   B   0.619818616182639   0.239645087764223   0.110781806724509   1.0000000
B2   B   0.616140829346428   0.382782239827647   0.110983747172717   1.0000000
B2   B   0.620157853270768   0.538416441434094   0.110736709038408   1.0000000
B2   B   0.633644745085722   0.682441780061666   0.110803281449954   1.0000000
B2   B   0.625720050073151   0.817359258332617   0.110724239043373   1.0000000
B2   B   0.766659603262124   0.957759335494100   0.110537165910589   1.0000000
B2   B   0.765077262057905   0.099181773487589   0.110656912446072   1.0000000
B2   B   0.763611029385428   0.240967795449935   0.110665710683490   1.0000000
B2   B   0.761220512134595   0.382977087827420   0.110791716054634   1.0000000
B2   B   0.758742161972439   0.525763162522384   0.110868822515049   1.0000000
B2   B   0.769905937064296   0.673913332273438   0.110731754623105   1.0000000
B2   B   0.770159570789724   0.817647998806117   0.110517313814878   1.0000000
N2   N   0.954898955175111   0.905982913952955   0.110630294886115   1.0000000
N2   N   0.953981317169025   0.048981391131132   0.110686806121321   1.0000000
N2   N   0.954615694953764   0.192889473781421   0.110775266829833   1.0000000
N2   N   0.954386640759721   0.335565125429298   0.110657858321676   1.0000000
N2   N   0.952801847415955   0.477376758111182   0.110637329025860   1.0000000
N2   N   0.953372195511218   0.619083883016726   0.110810144965707   1.0000000
N2   N   0.954296483050889   0.761958520301062   0.110836588218748   1.0000000
N2   N   0.095787736207475   0.902082040429642   0.110597312777734   1.0000000
N2   N   0.093975928220760   0.043684357673899   0.110711372282183   1.0000000
N2   N   0.092898087135613   0.186550592536042   0.110970560443438   1.0000000
N2   N   0.097820527584261   0.334169867940298   0.110655324285110   1.0000000
N2   N   0.097290247544030   0.477127484795661   0.110581716501377   1.0000000
N2   N   0.096895198316251   0.618848336662048   0.110627921125298   1.0000000
N2   N   0.096481790095293   0.760367169708988   0.110662713570862   1.0000000
N2   N   0.239132964038222   0.901614377762755   0.110486585084135   1.0000000
N2   N   0.237202969921648   0.041412162789268   0.110689238206732   1.0000000
N2   N   0.232926526576778   0.179871264895526   0.111052696358502   1.0000000
N2   N   0.231960554684366   0.322640039043893   0.110303401746735   1.0000000
N2   N   0.241769755524241   0.477329417919547   0.110599650507060   1.0000000
N2   N   0.241299268048177   0.620086515507148   0.110784898694340   1.0000000
N2   N   0.240212184923281   0.761127724273924   0.110589613167056   1.0000000
N2   N   0.383577868073509   0.904198290478122   0.110545615450125   1.0000000
N2   N   0.382176437033680   0.042711999746614   0.110580432581465   1.0000000
N2   N   0.379558278795850   0.179104466545413   0.111291171623498   1.0000000
N2   N   0.372527751478683   0.309193036660279   0.110437682290029   1.0000000
N2   N   0.387669717074152   0.628186102698168   0.111224830009465   1.0000000
N2   N   0.385077185801944   0.765491592524436   0.110883955583898   1.0000000
N2   N   0.527882287812808   0.907495793320708   0.110674209779081   1.0000000
N2   N   0.526493507027874   0.047806844111476   0.110564555502301   1.0000000
N2   N   0.524677164558727   0.187812877382117   0.110783284055741   1.0000000
N2   N   0.520431589065614   0.326875373744096   0.111166865553577   1.0000000
N2   N   0.535496643052203   0.536774653591358   0.110649113678565   1.0000000
N2   N   0.542302805496118   0.635044525290633   0.111072619020573   1.0000000
N2   N   0.530470014510211   0.767507266899768   0.110963551564380   1.0000000
N2   N   0.671892081133885   0.911368921088510   0.110548009185242   1.0000000
N2   N   0.670098743399952   0.051650487133945   0.110582282271675   1.0000000
N2   N   0.668468746442010   0.193134321316186   0.110618724853029   1.0000000
N2   N   0.665571117575136   0.335730453027286   0.110838696350738   1.0000000
N2   N   0.660863963336635   0.479964306601769   0.110857216534633   1.0000000
N2   N   0.677977899914356   0.632167843782076   0.110671252922731   1.0000000
N2   N   0.677060858787975   0.774601126803465   0.110601914653505   1.0000000
N2   N   0.815112765084448   0.911075080033769   0.110429372742708   1.0000000
N2   N   0.813114380312360   0.052167824055620   0.110607237398510   1.0000000
N2   N   0.811973335509718   0.193996271087564   0.110652296375196   1.0000000
N2   N   0.810145245782716   0.335949789451097   0.110669949215100   1.0000000
N2   N   0.807622618236194   0.477976866658413   0.110805012822255   1.0000000
N2   N   0.811574292868134   0.621105699231865   0.110856003143999   1.0000000
N2   N   0.815854986403620   0.768084448619228   0.110602974014045   1.0000000


