data_1
_audit_creation_method   'vasp2cif'
_cell_length_a    17.52789999999977
_cell_length_b    17.52789999999977
_cell_length_c    15.0
_cell_angle_alpha    90.0
_cell_angle_beta    90.0
_cell_angle_gamma    119.99999999999916

_symmetry_space_group_name_H-M    'P 1'
loop_
_atom_site_label
_atom_site_type_symbol
_atom_site_fract_x
_atom_site_fract_y
_atom_site_fract_z
_atom_site_occupancy
Al2   Al   0.545264751102719   0.454758356786913   0.275970671985780   1.0000000
B2   B   0.905328790723869   0.953711139090453   0.103000560178965   1.0000000
B2   B   0.904023079479320   0.095978456100917   0.103412373268301   1.0000000
B2   B   0.903571323901949   0.238764843317758   0.104239476836995   1.0000000
B2   B   0.903701449157401   0.381613901702786   0.105892075281933   1.0000000
B2   B   0.904518889036484   0.524508958498210   0.108073931237745   1.0000000
B2   B   0.905599184900728   0.667562184254254   0.108377944035040   1.0000000
B2   B   0.906099838003711   0.810976536224190   0.104491474592314   1.0000000
B2   B   0.047589297163493   0.952401107559920   0.102722989536149   1.0000000
B2   B   0.046296615602312   0.094677245157839   0.102995586732948   1.0000000
B2   B   0.045844842519030   0.237835851246812   0.103943592595593   1.0000000
B2   B   0.046219346954626   0.381057524805070   0.104276731595510   1.0000000
B2   B   0.047177684152983   0.523993870304291   0.104468215700486   1.0000000
B2   B   0.048033692825910   0.666836104719157   0.104676014607595   1.0000000
B2   B   0.048101212790542   0.809698311354788   0.103711262142816   1.0000000
B2   B   0.190305878615382   0.951905605544115   0.103763779809770   1.0000000
B2   B   0.189019858558955   0.093902137255152   0.104537537647591   1.0000000
B2   B   0.186917868491632   0.235458291379773   0.107220343476385   1.0000000
B2   B   0.187954066131774   0.379857535430966   0.107641484168405   1.0000000
B2   B   0.189852926596698   0.523354255566009   0.105612719723225   1.0000000
B2   B   0.190960111637671   0.666360085325037   0.104278897629619   1.0000000
B2   B   0.190783020425794   0.809216085784469   0.103868256806765   1.0000000
B2   B   0.333169604475460   0.951971979197912   0.104800652255660   1.0000000
B2   B   0.332439042359044   0.094401026251579   0.108574684523351   1.0000000
B2   B   0.329790474060825   0.234951520645166   0.116015799104767   1.0000000
B2   B   0.326024306920069   0.375925407703783   0.120263624766628   1.0000000
B2   B   0.332325356982942   0.521613179477444   0.113159397674858   1.0000000
B2   B   0.334300413434771   0.665704274330715   0.106814378083094   1.0000000
B2   B   0.333653788199816   0.809053004876021   0.104358933778296   1.0000000
B2   B   0.476016065989508   0.952830997662343   0.104624926992998   1.0000000
B2   B   0.475494338551886   0.095481533899113   0.108315767554860   1.0000000
B2   B   0.474584001370223   0.237442341119913   0.119775992591544   1.0000000
B2   B   0.468538743482082   0.374095525778719   0.140745544012758   1.0000000
B2   B   0.478374464213683   0.667659698423245   0.113323165099407   1.0000000
B2   B   0.476657420171868   0.810147653895781   0.105731549397130   1.0000000
B2   B   0.618948655125569   0.953794652698500   0.104403739599501   1.0000000
B2   B   0.618383562568720   0.096305227174258   0.106025678979197   1.0000000
B2   B   0.618054294561239   0.239039416998316   0.112714845527393   1.0000000
B2   B   0.618188447107466   0.381821527856230   0.126881804826146   1.0000000
B2   B   0.625940714614468   0.531454935897729   0.140805859503904   1.0000000
B2   B   0.624063418716470   0.673970922734827   0.120532823185313   1.0000000
B2   B   0.620135706474102   0.812040737408729   0.107837844885768   1.0000000
B2   B   0.762158980934388   0.954151894494282   0.104016657601050   1.0000000
B2   B   0.761235626088010   0.096443080932388   0.104299720268258   1.0000000
B2   B   0.760865149613895   0.239140987977387   0.106916970818521   1.0000000
B2   B   0.760965310742547   0.381949462196715   0.112595878545890   1.0000000
B2   B   0.762560846689421   0.525415650440359   0.119562210722970   1.0000000
B2   B   0.765041631966378   0.670204757785363   0.115961662646141   1.0000000
B2   B   0.764525993282800   0.813068348344260   0.107341482655640   1.0000000
Ga2   Ga   0.492291403472203   0.507704210807062   0.112053671164217   1.0000000
N2   N   0.952847672880214   0.905761224050630   0.102749828466452   1.0000000
N2   N   0.951692304661577   0.048278625563346   0.103050513590530   1.0000000
N2   N   0.950915133913034   0.190914300984872   0.103608033527750   1.0000000
N2   N   0.950976328885895   0.333831688666850   0.104392826332897   1.0000000
N2   N   0.951702320720251   0.476712908524229   0.105633531634179   1.0000000
N2   N   0.952645089696037   0.619560015390989   0.106687846282759   1.0000000
N2   N   0.953037069198134   0.762576060616566   0.104640694133620   1.0000000
N2   N   0.095267040231054   0.904735952166208   0.103175595311954   1.0000000
N2   N   0.094245323377303   0.047147415331135   0.102772086771853   1.0000000
N2   N   0.092574919093153   0.189181776845833   0.103742093349384   1.0000000
N2   N   0.092989442088551   0.332852636479275   0.104646522617110   1.0000000
N2   N   0.094351533800209   0.476188654126399   0.104229887872948   1.0000000
N2   N   0.095414273659997   0.619131716472207   0.104124287486005   1.0000000
N2   N   0.095562656529141   0.761941252096560   0.103999076300861   1.0000000
N2   N   0.238064420211354   0.904453749670879   0.104047131470883   1.0000000
N2   N   0.237436702423028   0.046968624122522   0.104754513028493   1.0000000
N2   N   0.235444175357355   0.188423235591558   0.107400505671508   1.0000000
N2   N   0.232545239987059   0.329420065915558   0.110921600608597   1.0000000
N2   N   0.236412561245545   0.475153555171720   0.108102264534379   1.0000000
N2   N   0.238502826701177   0.618678864267740   0.105360530308220   1.0000000
N2   N   0.238378603967279   0.761639887268476   0.103948303126394   1.0000000
N2   N   0.380874602788601   0.904589042087038   0.104260843239304   1.0000000
N2   N   0.380434629487926   0.047353979844926   0.106875521328890   1.0000000
N2   N   0.379559260300936   0.189436734711958   0.115308026623140   1.0000000
N2   N   0.375037317036426   0.328758450346381   0.126871109558685   1.0000000
N2   N   0.372448622958413   0.468429523145244   0.120539824965294   1.0000000
N2   N   0.382037573990061   0.617961702063224   0.110505740024386   1.0000000
N2   N   0.381330762488329   0.761504019342662   0.105456340683154   1.0000000
N2   N   0.523835020817691   0.905652738522440   0.104359224085533   1.0000000
N2   N   0.523289104041690   0.048304488722958   0.105831481265553   1.0000000
N2   N   0.522837952745219   0.190999049223646   0.113079458379008   1.0000000
N2   N   0.522326307928786   0.333355467085865   0.131112640540585   1.0000000
N2   N   0.531569772682153   0.627544617696064   0.120874673958818   1.0000000
N2   N   0.524838923175677   0.763582876378773   0.108247371782859   1.0000000
N2   N   0.667170194689263   0.907015516160469   0.104763334046943   1.0000000
N2   N   0.666168445625843   0.049018791072883   0.104513146373418   1.0000000
N2   N   0.665682945933003   0.191672630914124   0.108031802419359   1.0000000
N2   N   0.665483250652267   0.334516183439940   0.116972549935276   1.0000000
N2   N   0.666672783842139   0.477679991843189   0.131063236140783   1.0000000
N2   N   0.671255665584757   0.624963888693146   0.126958480590321   1.0000000
N2   N   0.670566830212562   0.767457237449221   0.111209064206268   1.0000000
N2   N   0.810801829264908   0.907422380047701   0.103788266306476   1.0000000
N2   N   0.809072996097217   0.049072536436352   0.103653447491070   1.0000000
N2   N   0.808438826084033   0.191551009614437   0.104818438244061   1.0000000
N2   N   0.808335216532017   0.334324566244198   0.107978587075608   1.0000000
N2   N   0.809004430657197   0.477164106874856   0.112792404963751   1.0000000
N2   N   0.810549721500083   0.620431580875648   0.115058534489367   1.0000000
N2   N   0.811563749604617   0.764556203719094   0.107417592500151   1.0000000


