data_1
_audit_creation_method   'vasp2cif'
_cell_length_a    17.52789999999977
_cell_length_b    17.52789999999977
_cell_length_c    15.0
_cell_angle_alpha    90.0
_cell_angle_beta    90.0
_cell_angle_gamma    119.99999999999916

_symmetry_space_group_name_H-M    'P 1'
loop_
_atom_site_label
_atom_site_type_symbol
_atom_site_fract_x
_atom_site_fract_y
_atom_site_fract_z
_atom_site_occupancy
B2   B   0.904029546847588   0.950755924838257   0.116141410980508   1.0000000
B2   B   0.905751903040983   0.094360601416308   0.117009089763536   1.0000000
B2   B   0.906365506445519   0.237389975160128   0.117328089646486   1.0000000
B2   B   0.906254535455761   0.380293640570232   0.116950750888871   1.0000000
B2   B   0.904741872461928   0.522994132509058   0.114915714619294   1.0000000
B2   B   0.902533618995465   0.665170435959906   0.114042283850714   1.0000000
B2   B   0.901565775053744   0.806634844019356   0.114810967435345   1.0000000
B2   B   0.047540784530947   0.952619598166805   0.117416842278011   1.0000000
B2   B   0.049390359679722   0.096116699784619   0.116324302893624   1.0000000
B2   B   0.049890486381674   0.238610749632345   0.113919042810251   1.0000000
B2   B   0.049304510256943   0.381107179802415   0.113630241527801   1.0000000
B2   B   0.047780640692746   0.523894335395629   0.114904675795566   1.0000000
B2   B   0.046556879437757   0.666670811224628   0.115398510839892   1.0000000
B2   B   0.046432876203289   0.809418004266788   0.116584965460245   1.0000000
B2   B   0.190752481556051   0.953738378494551   0.116393172736033   1.0000000
B2   B   0.193523947332541   0.098604253449972   0.114849675604911   1.0000000
B2   B   0.194781376673635   0.241495461552349   0.110399996934624   1.0000000
B2   B   0.193195123300712   0.382517623509415   0.105294501549235   1.0000000
B2   B   0.190493309307083   0.524747319729602   0.107566974660390   1.0000000
B2   B   0.189497249622354   0.667489217383937   0.111883325575666   1.0000000
B2   B   0.189778654703363   0.810376383099621   0.115420482761864   1.0000000
B2   B   0.333490080531804   0.953618803144281   0.115541584464597   1.0000000
B2   B   0.334991958405907   0.097656980600852   0.114050104595329   1.0000000
B2   B   0.340711904095039   0.245781596634717   0.111051251854911   1.0000000
B2   B   0.340242051613646   0.386599614708335   0.097688605403653   1.0000000
B2   B   0.333118864277919   0.527016042304214   0.095750641086987   1.0000000
B2   B   0.331734287328497   0.668403271276688   0.103471228860070   1.0000000
B2   B   0.332661858147326   0.810658430230222   0.111981788909419   1.0000000
B2   B   0.476243553636903   0.952384896582183   0.115069577210634   1.0000000
B2   B   0.477147507632399   0.095451290220793   0.114981441949627   1.0000000
B2   B   0.478672754541149   0.239198781232927   0.109995744552101   1.0000000
B2   B   0.492803653151285   0.393716719214840   0.112878964133881   1.0000000
B2   B   0.473132577686305   0.667029033448740   0.095588659571387   1.0000000
B2   B   0.475383346724350   0.809649192711000   0.107531438369077   1.0000000
B2   B   0.619018344943504   0.950835788377652   0.113577550004530   1.0000000
B2   B   0.619832768866214   0.093892939203577   0.116619197947987   1.0000000
B2   B   0.620572414458967   0.236423056988808   0.112470643142744   1.0000000
B2   B   0.621928822637113   0.378245652041576   0.108785205147919   1.0000000
B2   B   0.606527233760088   0.507385438761958   0.113190086145293   1.0000000
B2   B   0.613536248658776   0.659883607314191   0.097516071965721   1.0000000
B2   B   0.617609005983190   0.806931736688773   0.105223140310492   1.0000000
B2   B   0.761501908547580   0.950222358186611   0.113833940536102   1.0000000
B2   B   0.762732663458135   0.093760459144626   0.117268497575900   1.0000000
B2   B   0.763348668894454   0.236777053711239   0.116477395768180   1.0000000
B2   B   0.763739360177747   0.379569546058590   0.112686332011521   1.0000000
B2   B   0.761021250112456   0.521481882311268   0.110315834677170   1.0000000
B2   B   0.754405330402486   0.659441915770699   0.110842616702992   1.0000000
B2   B   0.758653026511557   0.805349131592577   0.110067973399548   1.0000000
N2   N   0.951210219746464   0.902990455967837   0.116932768314562   1.0000000
N2   N   0.953296528298215   0.046830810614099   0.117029731276140   1.0000000
N2   N   0.954215625522437   0.190037858362658   0.116667692611562   1.0000000
N2   N   0.954088227225555   0.332851809012950   0.117110897279150   1.0000000
N2   N   0.952825424571271   0.475686820250445   0.116993769074123   1.0000000
N2   N   0.951225492990394   0.618378068879387   0.114991475018978   1.0000000
N2   N   0.950592642485480   0.760592304951882   0.115466050457281   1.0000000
N2   N   0.095058365534186   0.905105783347887   0.117398292043754   1.0000000
N2   N   0.097172562253932   0.048952178636469   0.116958331785267   1.0000000
N2   N   0.098490382403230   0.192090111018051   0.114016920038141   1.0000000
N2   N   0.097745808679373   0.334114075529096   0.110892027549949   1.0000000
N2   N   0.095726969107825   0.476494382210770   0.112483448543935   1.0000000
N2   N   0.094489560765063   0.619281668080397   0.114370074833693   1.0000000
N2   N   0.094343055025913   0.762118753810472   0.116083137461776   1.0000000
N2   N   0.238036417561705   0.905818515189879   0.115956276502968   1.0000000
N2   N   0.239576584957875   0.049586665370239   0.115136462118651   1.0000000
N2   N   0.243606643722758   0.195367605607841   0.112035641648349   1.0000000
N2   N   0.243609100655981   0.337341585291472   0.103922448036644   1.0000000
N2   N   0.238815693354286   0.477745627015263   0.102889516517993   1.0000000
N2   N   0.237078713571320   0.620010161202279   0.107415548043467   1.0000000
N2   N   0.237379524772567   0.762777005854933   0.113327166602018   1.0000000
N2   N   0.380860119760362   0.905664113604960   0.114740584146750   1.0000000
N2   N   0.381776228396911   0.048951420552974   0.115153627325547   1.0000000
N2   N   0.383817770142602   0.193534961095461   0.111865515312839   1.0000000
N2   N   0.392721826143561   0.344410806445792   0.108989299472888   1.0000000
N2   N   0.384167185249949   0.482791107610009   0.084363376700942   1.0000000
N2   N   0.379007469569800   0.621134871713440   0.096082421916600   1.0000000
N2   N   0.380132645633298   0.763084424700108   0.107309583805749   1.0000000
N2   N   0.523636250575172   0.904408336344341   0.112597458325645   1.0000000
N2   N   0.524452875175252   0.047350735251562   0.116923207085814   1.0000000
N2   N   0.525393203019920   0.190383511003469   0.112213645378854   1.0000000
N2   N   0.527524129877701   0.333971851099990   0.107841648867295   1.0000000
N2   N   0.517361842136821   0.615998723434033   0.084115470864351   1.0000000
N2   N   0.522379083248663   0.761327054915858   0.102724953863461   1.0000000
N2   N   0.666009868826835   0.902381275792060   0.110905004159876   1.0000000
N2   N   0.667267403039931   0.046049281471730   0.116806687296294   1.0000000
N2   N   0.668033108702039   0.188906430031256   0.115393387852503   1.0000000
N2   N   0.669010913767866   0.331148925032992   0.110129919909140   1.0000000
N2   N   0.666249266165288   0.472638098809897   0.108801701085246   1.0000000
N2   N   0.655766442691234   0.607422271872550   0.108887591390517   1.0000000
N2   N   0.662779174760048   0.756499274521151   0.103840573995580   1.0000000
N2   N   0.808043337682766   0.901638235669991   0.113578950893894   1.0000000
N2   N   0.810081535362610   0.045897461395513   0.116824413512092   1.0000000
N2   N   0.810932073032138   0.189195263420332   0.117893759673893   1.0000000
N2   N   0.811225760694980   0.332085975345662   0.115875799428590   1.0000000
N2   N   0.809809772800254   0.474746541497211   0.112237771946179   1.0000000
N2   N   0.806660691344725   0.616344072568621   0.111722080972990   1.0000000
N2   N   0.804815583330294   0.756558061835373   0.111629429658775   1.0000000
C2   C   0.472430084928626   0.527635799024430   0.062079442882649   1.0000000


