data_1
_audit_creation_method   'vasp2cif'
_cell_length_a    14.93631414619966
_cell_length_b    14.936314146199727
_cell_length_c    13.341276283792837
_cell_angle_alpha    90.0
_cell_angle_beta    90.0
_cell_angle_gamma    119.99999999999984

_symmetry_space_group_name_H-M    'P 1'
loop_
_atom_site_label
_atom_site_type_symbol
_atom_site_fract_x
_atom_site_fract_y
_atom_site_fract_z
_atom_site_occupancy
Se2   Se   0.478563120073928   0.405948226703629   0.375000000000000   1.0000000
N2   N   0.111048526593420   0.055501756055903   0.125269772192101   1.0000000
N2   N   0.610985010048121   0.555469645279230   0.126271791947285   1.0000000
N2   N   0.444381149386816   0.055507171854911   0.125412157816942   1.0000000
N2   N   0.944396059839836   0.555541764510385   0.125443791754853   1.0000000
N2   N   0.777709091029691   0.055521212181514   0.125093533708843   1.0000000
N2   N   0.111067424923937   0.722200379128633   0.624847646018390   1.0000000
N2   N   0.444381149386816   0.722207310865239   0.624587842183059   1.0000000
N2   N   0.277679523485298   0.222165193852800   0.625300959558407   1.0000000
N2   N   0.777689227643238   0.722151644669464   0.624031853483832   1.0000000
N2   N   0.611026117466476   0.222186706964763   0.624157344934328   1.0000000
N2   N   0.944379468025754   0.222202761090966   0.624838417826336   1.0000000
N2   N   0.277725300392925   0.722206523766691   0.125192080688759   1.0000000
N2   N   0.111031174107559   0.222182253720443   0.125173477727577   1.0000000
N2   N   0.444372935823846   0.222173971523922   0.125120946627915   1.0000000
N2   N   0.611026117466476   0.722172743835043   0.125842655065673   1.0000000
N2   N   0.944396059839836   0.722187628662787   0.125443791754853   1.0000000
N2   N   0.777707749844537   0.222200450304402   0.125303989295507   1.0000000
N2   N   0.111062480793399   0.888847005942890   0.624808287946237   1.0000000
N2   N   0.444382030228856   0.888857681781092   0.624781026033582   1.0000000
N2   N   0.277679523485298   0.388847662965827   0.625300959558407   1.0000000
N2   N   0.610985010048121   0.388848698102220   0.623728208052716   1.0000000
N2   N   0.777707749844537   0.888840632873464   0.624696010704493   1.0000000
N2   N   0.944383896922561   0.388884333979529   0.624704240543146   1.0000000
N2   N   0.111048526593420   0.388880103870846   0.125269772192101   1.0000000
N2   N   0.277725300392925   0.888852109959563   0.125192080688759   1.0000000
N2   N   0.611038722073536   0.888855475763918   0.125238921701337   1.0000000
N2   N   0.444227632923452   0.388780483128391   0.122361597417652   1.0000000
N2   N   0.944383896922561   0.888832896276361   0.125295759456852   1.0000000
N2   N   0.777689227643238   0.388870916307103   0.125968146516170   1.0000000
N2   N   0.277720583168205   0.555547756367126   0.624763791615534   1.0000000
N2   N   0.111048526593420   0.055501756055903   0.624730227807899   1.0000000
N2   N   0.610985010048121   0.555469645279230   0.623728208052716   1.0000000
N2   N   0.444381149386816   0.055507171854911   0.624587842183059   1.0000000
N2   N   0.944396059839836   0.555541764510385   0.624556208245148   1.0000000
N2   N   0.111062480793399   0.555548808183836   0.125191712053761   1.0000000
N2   N   0.777709091029691   0.055521212181514   0.624906466291157   1.0000000
N2   N   0.277720583168205   0.055506160134415   0.125236208384466   1.0000000
N2   N   0.444372935823846   0.555532297633261   0.125120946627915   1.0000000
N2   N   0.777707437099186   0.555520385216259   0.126205151772710   1.0000000
N2   N   0.611038722073536   0.055516579642947   0.125238921701337   1.0000000
N2   N   0.444372935823846   0.555532297633261   0.624879053372084   1.0000000
N2   N   0.944379468025754   0.055510040268123   0.125161582173664   1.0000000
N2   N   0.277725300392925   0.722206523766691   0.624807919311241   1.0000000
N2   N   0.111031174107559   0.222182253720443   0.624826522272424   1.0000000
N2   N   0.444372935823846   0.222173971523922   0.624879053372084   1.0000000
N2   N   0.611026117466476   0.722172743835043   0.624157344934328   1.0000000
N2   N   0.944396059839836   0.722187628662787   0.624556208245148   1.0000000
N2   N   0.777707749844537   0.222200450304402   0.624696010704493   1.0000000
N2   N   0.111067424923937   0.722200379128633   0.125152353981611   1.0000000
N2   N   0.444381149386816   0.722207310865239   0.125412157816942   1.0000000
N2   N   0.277679523485298   0.222165193852800   0.124699040441594   1.0000000
N2   N   0.777689227643238   0.722151644669464   0.125968146516170   1.0000000
N2   N   0.611026117466476   0.222186706964763   0.125842655065673   1.0000000
N2   N   0.944379468025754   0.222202761090966   0.125161582173664   1.0000000
N2   N   0.111048526593420   0.388880103870846   0.624730227807899   1.0000000
N2   N   0.277725300392925   0.888852109959563   0.624807919311241   1.0000000
N2   N   0.611038722073536   0.888855475763918   0.624761078298663   1.0000000
N2   N   0.444227632923452   0.388780483128391   0.627638402582350   1.0000000
N2   N   0.944383896922561   0.888832896276361   0.624704240543146   1.0000000
N2   N   0.111062480793399   0.888847005942890   0.125191712053761   1.0000000
N2   N   0.777689227643238   0.388870916307103   0.624031853483832   1.0000000
N2   N   0.444382030228856   0.888857681781092   0.125218973966419   1.0000000
N2   N   0.277679523485298   0.388847662965827   0.124699040441594   1.0000000
N2   N   0.277720583168205   0.555547756367126   0.125236208384466   1.0000000
N2   N   0.610985010048121   0.388848698102220   0.126271791947285   1.0000000
N2   N   0.777707749844537   0.888840632873464   0.125303989295507   1.0000000
N2   N   0.944383896922561   0.388884333979529   0.125295759456852   1.0000000
N2   N   0.111062480793399   0.555548808183836   0.624808287946237   1.0000000
N2   N   0.277720583168205   0.055506160134415   0.624763791615534   1.0000000
N2   N   0.777707437099186   0.555520385216259   0.623794848227291   1.0000000
N2   N   0.611038722073536   0.055516579642947   0.624761078298663   1.0000000
N2   N   0.944379468025754   0.055510040268123   0.624838417826336   1.0000000
N2   N   0.057670568499466   0.112313302148871   0.375000000000000   1.0000000
N2   N   0.554167726947017   0.614611657413391   0.375000000000000   1.0000000
N2   N   0.388236321356602   0.106593090314802   0.375000000000000   1.0000000
N2   N   0.889330936670885   0.611332135002114   0.375000000000000   1.0000000
N2   N   0.723909516612607   0.111465328554244   0.375000000000000   1.0000000
N2   N   0.055515730752381   0.777759722085919   0.875000000000000   1.0000000
N2   N   0.388865069987883   0.777764193602437   0.875000000000000   1.0000000
N2   N   0.222185099406400   0.277759216369868   0.875000000000000   1.0000000
N2   N   0.722194075586491   0.777762040491493   0.875000000000000   1.0000000
N2   N   0.555528887622402   0.277770032826391   0.875000000000000   1.0000000
N2   N   0.888860444488458   0.277763199429719   0.875000000000000   1.0000000
N2   N   0.221961431522419   0.777647382427878   0.375000000000000   1.0000000
N2   N   0.057670568499466   0.278690599683930   0.375000000000000   1.0000000
N2   N   0.389332567395611   0.269971342173392   0.375000000000000   1.0000000
N2   N   0.556242434987908   0.780219726491885   0.375000000000000   1.0000000
N2   N   0.890212848189307   0.778876842449052   0.375000000000000   1.0000000
N2   N   0.723681479097062   0.277318378924727   0.375000000000000   1.0000000
N2   N   0.055519035784339   0.944428170086316   0.875000000000000   1.0000000
N2   N   0.388865069987883   0.944434209718782   0.875000000000000   1.0000000
N2   N   0.222184375468986   0.444424691698369   0.875000000000000   1.0000000
N2   N   0.555535292348675   0.444434312841002   0.875000000000000   1.0000000
N2   N   0.722197510197906   0.944431373852006   0.875000000000000   1.0000000
N2   N   0.888854720222047   0.444424965471609   0.875000000000000   1.0000000
N2   N   0.056715500634638   0.444909221803733   0.375000000000000   1.0000000
N2   N   0.221929070847503   0.943399349683512   0.375000000000000   1.0000000
N2   N   0.556548698028239   0.944941015680784   0.375000000000000   1.0000000
N2   N   0.389332567395611   0.452694558555554   0.375000000000000   1.0000000
N2   N   0.890680714279004   0.945832341274719   0.375000000000000   1.0000000
N2   N   0.723938992012597   0.445646385645880   0.375000000000000   1.0000000
N2   N   0.222186575725606   0.611091241430122   0.875000000000000   1.0000000
N2   N   0.055521144537596   0.111093822787826   0.875000000000000   1.0000000
N2   N   0.555528887622402   0.611092188129348   0.875000000000000   1.0000000
N2   N   0.388858458800792   0.111098670903250   0.875000000000000   1.0000000
N2   N   0.888850918831344   0.611092126082343   0.875000000000000   1.0000000
N2   N   0.055590550772997   0.611211488462751   0.375000000000000   1.0000000
N2   N   0.722197510197906   0.111099469679236   0.875000000000000   1.0000000
N2   N   0.223710912275568   0.111168040751778   0.375000000000000   1.0000000
N2   N   0.388236321356602   0.614976564375142   0.375000000000000   1.0000000
N2   N   0.723938992012597   0.611625939700052   0.375000000000000   1.0000000
N2   N   0.556242434987908   0.109356041829360   0.375000000000000   1.0000000
N2   N   0.388858458800792   0.611093121230886   0.875000000000000   1.0000000
N2   N   0.890907372965812   0.112120353149577   0.375000000000000   1.0000000
N2   N   0.222188901510004   0.777761117421669   0.875000000000000   1.0000000
N2   N   0.055521144537596   0.277760655083106   0.875000000000000   1.0000000
N2   N   0.388854596528137   0.277756145335492   0.875000000000000   1.0000000
N2   N   0.555531173057024   0.777761628899922   0.875000000000000   1.0000000
N2   N   0.888854720222047   0.777763088083773   0.875000000000000   1.0000000
N2   N   0.722194075586491   0.277765368428332   0.875000000000000   1.0000000
N2   N   0.055590550772997   0.777712395643583   0.375000000000000   1.0000000
N2   N   0.388951517939157   0.779018134833856   0.375000000000000   1.0000000
N2   N   0.224997107940150   0.279165220636742   0.375000000000000   1.0000000
N2   N   0.723681479097062   0.779696433505667   0.375000000000000   1.0000000
N2   N   0.554167726947017   0.272889402866961   0.375000000000000   1.0000000
N2   N   0.890680714279004   0.278181706337621   0.375000000000000   1.0000000
N2   N   0.055519035784339   0.444424199031354   0.875000000000000   1.0000000
N2   N   0.222186575725606   0.944428667628819   0.875000000000000   1.0000000
N2   N   0.555533887286946   0.944433610310139   0.875000000000000   1.0000000
N2   N   0.388854596528137   0.444431784525981   0.875000000000000   1.0000000
N2   N   0.888860444488458   0.944430578392074   0.875000000000000   1.0000000
N2   N   0.056715500634638   0.945139612164234   0.375000000000000   1.0000000
N2   N   0.722189604106103   0.444428903525003   0.875000000000000   1.0000000
N2   N   0.388951517939157   0.943266716438636   0.375000000000000   1.0000000
N2   N   0.223710912275568   0.445876204857126   0.375000000000000   1.0000000
N2   N   0.221929070847503   0.611863054497327   0.375000000000000   1.0000000
N2   N   0.723909516612607   0.945777521391700   0.375000000000000   1.0000000
N2   N   0.890212848189307   0.444669339073592   0.375000000000000   1.0000000
N2   N   0.055515730752381   0.611089341999799   0.875000000000000   1.0000000
N2   N   0.222184375468986   0.111093017103952   0.875000000000000   1.0000000
N2   N   0.722189604106103   0.611094033914434   0.875000000000000   1.0000000
N2   N   0.555531173057024   0.111102877490439   0.875000000000000   1.0000000
N2   N   0.888861811258279   0.111097572295811   0.875000000000000   1.0000000
B2   B   0.112243966328110   0.056118115936610   0.375000000000000   1.0000000
B2   B   0.622778389351939   0.581444858680490   0.375000000000000   1.0000000
B2   B   0.444723630990607   0.052605340908716   0.375000000000000   1.0000000
B2   B   0.945734858515950   0.555851431749173   0.375000000000000   1.0000000
B2   B   0.780129940118574   0.056731636725954   0.375000000000000   1.0000000
B2   B   0.111095813452015   0.722214573392671   0.875000000000000   1.0000000
B2   B   0.444398294747661   0.722225592688603   0.875000000000000   1.0000000
B2   B   0.277681456419173   0.222166764108572   0.875000000000000   1.0000000
B2   B   0.777793191010726   0.722271412930442   0.875000000000000   1.0000000
B2   B   0.611091536430528   0.222166431078382   0.875000000000000   1.0000000
B2   B   0.944422650380569   0.222196762062288   0.875000000000000   1.0000000
B2   B   0.277668761465618   0.722805769777908   0.375000000000000   1.0000000
B2   B   0.112915740015316   0.223124536674323   0.375000000000000   1.0000000
B2   B   0.442324549856159   0.214200182213648   0.375000000000000   1.0000000
B2   B   0.613602455155424   0.729100169313879   0.375000000000000   1.0000000
B2   B   0.945734858515950   0.723216760100111   0.375000000000000   1.0000000
B2   B   0.780292918311882   0.221803282301687   0.375000000000000   1.0000000
B2   B   0.111082311694002   0.888882394318152   0.875000000000000   1.0000000
B2   B   0.444414891468849   0.888874112401089   0.875000000000000   1.0000000
B2   B   0.277681456419173   0.388848025643929   0.875000000000000   1.0000000
B2   B   0.611079908283882   0.388857341446374   0.875000000000000   1.0000000
B2   B   0.777783074400357   0.888932087648580   0.875000000000000   1.0000000
B2   B   0.944441857523526   0.388855617384347   0.875000000000000   1.0000000
B2   B   0.112243966328110   0.389459183724828   0.375000000000000   1.0000000
B2   B   0.277668761465618   0.888196325021038   0.375000000000000   1.0000000
B2   B   0.613080420769926   0.891366849952865   0.375000000000000   1.0000000
B2   B   0.946310043879788   0.890822856283021   0.375000000000000   1.0000000
B2   B   0.781409769160271   0.387529721319434   0.375000000000000   1.0000000
B2   B   0.277707106621342   0.555532205532000   0.875000000000000   1.0000000
B2   B   0.111054119158025   0.055534558528335   0.875000000000000   1.0000000
B2   B   0.611079908283882   0.555555900170838   0.875000000000000   1.0000000
B2   B   0.444398294747661   0.055506035392393   0.875000000000000   1.0000000
B2   B   0.944457302606982   0.555545332104120   0.875000000000000   1.0000000
B2   B   0.111279930621164   0.555864349437177   0.375000000000000   1.0000000
B2   B   0.777776541523340   0.055554937428339   0.875000000000000   1.0000000
B2   B   0.277036828827679   0.053368482471518   0.375000000000000   1.0000000
B2   B   0.442324549856159   0.561457700975847   0.375000000000000   1.0000000
B2   B   0.781013995913703   0.557173664623519   0.375000000000000   1.0000000
B2   B   0.613080420769926   0.055046904150389   0.375000000000000   1.0000000
B2   B   0.444366371049829   0.555542849669199   0.875000000000000   1.0000000
B2   B   0.946624685927004   0.057074142626309   0.375000000000000   1.0000000
B2   B   0.277738308516349   0.722207445843992   0.875000000000000   1.0000000
B2   B   0.111041291066209   0.222187312199769   0.875000000000000   1.0000000
B2   B   0.444366371049829   0.222156854713965   0.875000000000000   1.0000000
B2   B   0.611091536430528   0.722258438685475   0.875000000000000   1.0000000
B2   B   0.944457302606982   0.722245303836198   0.875000000000000   1.0000000
B2   B   0.777783074400357   0.222184320085104   0.875000000000000   1.0000000
B2   B   0.111294628820715   0.722313981077023   0.375000000000000   1.0000000
B2   B   0.444723630990607   0.725451623415227   0.375000000000000   1.0000000
B2   B   0.277716295657887   0.221557297735804   0.375000000000000   1.0000000
B2   B   0.781409769160271   0.727213381174166   0.375000000000000   1.0000000
B2   B   0.613602455155424   0.217835619174874   0.375000000000000   1.0000000
B2   B   0.946624685927004   0.222883876634028   0.375000000000000   1.0000000
B2   B   0.111054119158025   0.388852893963018   0.875000000000000   1.0000000
B2   B   0.277738308516349   0.888864196005687   0.875000000000000   1.0000000
B2   B   0.611100131406703   0.888905485112396   0.875000000000000   1.0000000
B2   B   0.444359779346617   0.388846556339973   0.875000000000000   1.0000000
B2   B   0.944441857523526   0.888919573472508   0.875000000000000   1.0000000
B2   B   0.111279930621164   0.888748914517317   0.375000000000000   1.0000000
B2   B   0.777793191010726   0.388855111413609   0.875000000000000   1.0000000
B2   B   0.445228126880074   0.889280730106702   0.375000000000000   1.0000000
B2   B   0.277716295657887   0.389492331255411   0.375000000000000   1.0000000
B2   B   0.277036828827679   0.557001679689496   0.375000000000000   1.0000000
B2   B   0.622778389351939   0.374666864004779   0.375000000000000   1.0000000
B2   B   0.780292918311882   0.891822969343523   0.375000000000000   1.0000000
B2   B   0.946310043879788   0.388820520930095   0.375000000000000   1.0000000
B2   B   0.111082311694002   0.555533250709180   0.875000000000000   1.0000000
B2   B   0.277707106621342   0.055508234422676   0.875000000000000   1.0000000
B2   B   0.777796580361227   0.555564956847284   0.875000000000000   1.0000000
B2   B   0.611100131406703   0.055527979627638   0.875000000000000   1.0000000
B2   B   0.944422650380569   0.055559221651617   0.875000000000000   1.0000000
B2   B   0.055468735590228   0.111052894128159   0.124767533048714   1.0000000
B2   B   0.555357866972350   0.611181212564043   0.124534025549656   1.0000000
B2   B   0.388696541778964   0.110858559489600   0.124645088854727   1.0000000
B2   B   0.889088052064288   0.611210692698817   0.124911930833904   1.0000000
B2   B   0.722164875347775   0.111018974263265   0.124690840676787   1.0000000
B2   B   0.055650370405907   0.777815569819369   0.625255415456709   1.0000000
B2   B   0.388753876814276   0.777786094074094   0.625206305492078   1.0000000
B2   B   0.222006570858118   0.277669952095727   0.625788987420047   1.0000000
B2   B   0.722224917725892   0.777922230501047   0.625102283332086   1.0000000
B2   B   0.555357866972350   0.277509987741645   0.625465974450345   1.0000000
B2   B   0.888900905568491   0.277744356582266   0.625248730939134   1.0000000
B2   B   0.222189881591738   0.777761607462537   0.124739923398220   1.0000000
B2   B   0.055468735590228   0.277749174795404   0.124767533048714   1.0000000
B2   B   0.388604791910483   0.277584151486176   0.123059606819322   1.0000000
B2   B   0.555411222736992   0.777870193887208   0.124819142067507   1.0000000
B2   B   0.889016598871058   0.777882282774519   0.124886980843752   1.0000000
B2   B   0.722224917725892   0.277636020558179   0.124897716667915   1.0000000
B2   B   0.055555071519535   0.944417557666534   0.625207243204191   1.0000000
B2   B   0.388753876814276   0.944301116073516   0.625206305492078   1.0000000
B2   B   0.222060343852955   0.444447052144976   0.625398064576896   1.0000000
B2   B   0.555201466061210   0.444267399697269   0.626105847393391   1.0000000
B2   B   0.722164875347775   0.944479234417846   0.625309159323213   1.0000000
B2   B   0.889016598871058   0.444467649429875   0.625113019156247   1.0000000
B2   B   0.055555071519535   0.444470847186330   0.124792756795809   1.0000000
B2   B   0.222149015069507   0.944333003235660   0.124760926193527   1.0000000
B2   B   0.555430336949836   0.944381835141583   0.124722047847104   1.0000000
B2   B   0.388604791910483   0.444353973757644   0.123059606819322   1.0000000
B2   B   0.888900905568491   0.944489882319560   0.124751269060866   1.0000000
B2   B   0.722269413897403   0.444418719839124   0.125011868878147   1.0000000
B2   B   0.222149015069507   0.611149345167182   0.625239073806473   1.0000000
B2   B   0.055468735590228   0.111052894128159   0.625232466951285   1.0000000
B2   B   0.555357866972350   0.611181212564043   0.625465974450345   1.0000000
B2   B   0.388696541778964   0.110858559489600   0.625354911145274   1.0000000
B2   B   0.889088052064288   0.611210692698817   0.625088069166098   1.0000000
B2   B   0.055650370405907   0.611168133919873   0.124744584543291   1.0000000
B2   B   0.722164875347775   0.111018974263265   0.625309159323213   1.0000000
B2   B   0.222060343852955   0.110946625041315   0.124601935423104   1.0000000
B2   B   0.388696541778964   0.611171315622707   0.124645088854727   1.0000000
B2   B   0.722269413897403   0.611184027391617   0.125011868878147   1.0000000
B2   B   0.555411222736992   0.110874362183119   0.124819142067507   1.0000000
B2   B   0.388696541778964   0.611171315622707   0.625354911145274   1.0000000
B2   B   0.888850877613222   0.111092105473283   0.124703756537124   1.0000000
B2   B   0.222189881591738   0.777761607462537   0.625260076601781   1.0000000
B2   B   0.055468735590228   0.277749174795404   0.625232466951285   1.0000000
B2   B   0.388604791910483   0.277584151486176   0.626940393180678   1.0000000
B2   B   0.555411222736992   0.777870193887208   0.625180857932493   1.0000000
B2   B   0.889016598871058   0.777882282774519   0.625113019156247   1.0000000
B2   B   0.722224917725892   0.277636020558179   0.625102283332086   1.0000000
B2   B   0.055650370405907   0.777815569819369   0.124744584543291   1.0000000
B2   B   0.388753876814276   0.777786094074094   0.124793694507924   1.0000000
B2   B   0.222006570858118   0.277669952095727   0.124211012579954   1.0000000
B2   B   0.722224917725892   0.777922230501047   0.124897716667915   1.0000000
B2   B   0.555357866972350   0.277509987741645   0.124534025549656   1.0000000
B2   B   0.888900905568491   0.277744356582266   0.124751269060866   1.0000000
B2   B   0.055555071519535   0.444470847186330   0.625207243204191   1.0000000
B2   B   0.222149015069507   0.944333003235660   0.625239073806473   1.0000000
B2   B   0.555430336949836   0.944381835141583   0.625277952152895   1.0000000
B2   B   0.388604791910483   0.444353973757644   0.626940393180678   1.0000000
B2   B   0.888900905568491   0.944489882319560   0.625248730939134   1.0000000
B2   B   0.055555071519535   0.944417557666534   0.124792756795809   1.0000000
B2   B   0.722269413897403   0.444418719839124   0.624988131121853   1.0000000
B2   B   0.388753876814276   0.944301116073516   0.124793694507924   1.0000000
B2   B   0.222060343852955   0.444447052144976   0.124601935423104   1.0000000
B2   B   0.222149015069507   0.611149345167182   0.124760926193527   1.0000000
B2   B   0.555201466061210   0.444267399697269   0.123894152606609   1.0000000
B2   B   0.722164875347775   0.944479234417846   0.124690840676787   1.0000000
B2   B   0.889016598871058   0.444467649429875   0.124886980843752   1.0000000
B2   B   0.055650370405907   0.611168133919873   0.625255415456709   1.0000000
B2   B   0.222060343852955   0.110946625041315   0.625398064576896   1.0000000
B2   B   0.722269413897403   0.611184027391617   0.624988131121853   1.0000000
B2   B   0.555411222736992   0.110874362183119   0.625180857932493   1.0000000
B2   B   0.888850877613222   0.111092105473283   0.625296243462874   1.0000000


