data_1
_audit_creation_method   'vasp2cif'
_cell_length_a    14.93631414619966
_cell_length_b    14.936314146199727
_cell_length_c    13.341276283792837
_cell_angle_alpha    90.0
_cell_angle_beta    90.0
_cell_angle_gamma    119.99999999999984

_symmetry_space_group_name_H-M    'P 1'
loop_
_atom_site_label
_atom_site_type_symbol
_atom_site_fract_x
_atom_site_fract_y
_atom_site_fract_z
_atom_site_occupancy
As2   As   0.476855892669228   0.405094613001279   0.375000000000000   1.0000000
N2   N   0.111102465967485   0.055525792645890   0.125195120560154   1.0000000
N2   N   0.611081083169971   0.555546295193180   0.126574016456657   1.0000000
N2   N   0.444422280956844   0.055523692549119   0.125323707826732   1.0000000
N2   N   0.944448002031278   0.555566975393696   0.125357141545931   1.0000000
N2   N   0.777765355739041   0.055549344536188   0.125115023441741   1.0000000
N2   N   0.111111019868910   0.722222176601119   0.624832492694095   1.0000000
N2   N   0.444422280956844   0.722231921741062   0.624676292173267   1.0000000
N2   N   0.277749483720769   0.222187747771812   0.624842145588992   1.0000000
N2   N   0.777762602106354   0.722198545131243   0.624265098822146   1.0000000
N2   N   0.611079681778404   0.222203922483991   0.624350753757978   1.0000000
N2   N   0.944443705739687   0.222233488095726   0.624844700004414   1.0000000
N2   N   0.277765655439881   0.722228834486948   0.125184191609399   1.0000000
N2   N   0.111112182276526   0.222222757804928   0.125193574789625   1.0000000
N2   N   0.444422546614340   0.222190212016622   0.125585543135795   1.0000000
N2   N   0.611079681778404   0.722209092627741   0.125649246242021   1.0000000
N2   N   0.944448002031278   0.722214359970917   0.125357141545931   1.0000000
N2   N   0.777763223142528   0.222226542852194   0.125242343945401   1.0000000
N2   N   0.111107672777516   0.888867099995382   0.624819751637591   1.0000000
N2   N   0.444423616742922   0.888878475038125   0.624814000301838   1.0000000
N2   N   0.277749483720769   0.388895069282285   0.624842145588992   1.0000000
N2   N   0.611081083169971   0.388868121310120   0.623425983543342   1.0000000
N2   N   0.777763223142528   0.888870013623663   0.624757656054599   1.0000000
N2   N   0.944442177323131   0.388909152542912   0.624770937051605   1.0000000
N2   N   0.111102465967485   0.388910006654923   0.125195120560154   1.0000000
N2   N   0.277765655439881   0.888870154286260   0.125184191609399   1.0000000
N2   N   0.611086806324570   0.888881261669875   0.125188655673022   1.0000000
N2   N   0.444352204918309   0.388842769125819   0.125674055521326   1.0000000
N2   N   0.944442177323131   0.888866358113548   0.125229062948396   1.0000000
N2   N   0.777762602106354   0.388897390308441   0.125734901177854   1.0000000
N2   N   0.277764408039327   0.555575589816913   0.624742257194563   1.0000000
N2   N   0.111102465967485   0.055525792645890   0.624804879439845   1.0000000
N2   N   0.611081083169971   0.555546295193180   0.623425983543342   1.0000000
N2   N   0.444422280956844   0.055523692549119   0.624676292173267   1.0000000
N2   N   0.944448002031278   0.555566975393696   0.624642858454069   1.0000000
N2   N   0.111107672777516   0.555573906115463   0.125180248362410   1.0000000
N2   N   0.777765355739041   0.055549344536188   0.624884976558258   1.0000000
N2   N   0.277764408039327   0.055522151555749   0.125257742805437   1.0000000
N2   N   0.444422546614340   0.555565667931054   0.125585543135795   1.0000000
N2   N   0.777768856630732   0.555551094982033   0.126023273441597   1.0000000
N2   N   0.611086806324570   0.055538877988023   0.125188655673022   1.0000000
N2   N   0.444422546614340   0.555565667931054   0.624414456864205   1.0000000
N2   N   0.944443705739687   0.055543550977297   0.125155299995585   1.0000000
N2   N   0.277765655439881   0.722228834486948   0.624815808390601   1.0000000
N2   N   0.111112182276526   0.222222757804928   0.624806425210375   1.0000000
N2   N   0.444422546614340   0.222190212016622   0.624414456864205   1.0000000
N2   N   0.611079681778404   0.722209092627741   0.624350753757978   1.0000000
N2   N   0.944448002031278   0.722214359970917   0.624642858454069   1.0000000
N2   N   0.777763223142528   0.222226542852194   0.624757656054599   1.0000000
N2   N   0.111111019868910   0.722222176601119   0.125167507305905   1.0000000
N2   N   0.444422280956844   0.722231921741062   0.125323707826732   1.0000000
N2   N   0.277749483720769   0.222187747771812   0.125157854411008   1.0000000
N2   N   0.777762602106354   0.722198545131243   0.125734901177854   1.0000000
N2   N   0.611079681778404   0.222203922483991   0.125649246242021   1.0000000
N2   N   0.944443705739687   0.222233488095726   0.125155299995585   1.0000000
N2   N   0.111102465967485   0.388910006654923   0.624804879439845   1.0000000
N2   N   0.277765655439881   0.888870154286260   0.624815808390601   1.0000000
N2   N   0.611086806324570   0.888881261669875   0.624811344326977   1.0000000
N2   N   0.444352204918309   0.388842769125819   0.624325944478674   1.0000000
N2   N   0.944442177323131   0.888866358113548   0.624770937051605   1.0000000
N2   N   0.111107672777516   0.888867099995382   0.125180248362410   1.0000000
N2   N   0.777762602106354   0.388897390308441   0.624265098822146   1.0000000
N2   N   0.444423616742922   0.888878475038125   0.125185999698161   1.0000000
N2   N   0.277749483720769   0.388895069282285   0.125157854411008   1.0000000
N2   N   0.277764408039327   0.555575589816913   0.125257742805437   1.0000000
N2   N   0.611081083169971   0.388868121310120   0.126574016456657   1.0000000
N2   N   0.777763223142528   0.888870013623663   0.125242343945401   1.0000000
N2   N   0.944442177323131   0.388909152542912   0.125229062948396   1.0000000
N2   N   0.111107672777516   0.555573906115463   0.624819751637591   1.0000000
N2   N   0.277764408039327   0.055522151555749   0.624742257194563   1.0000000
N2   N   0.777768856630732   0.555551094982033   0.623976726558403   1.0000000
N2   N   0.611086806324570   0.055538877988023   0.624811344326977   1.0000000
N2   N   0.944443705739687   0.055543550977297   0.624844700004414   1.0000000
N2   N   0.057665200747148   0.112301391289738   0.375000000000000   1.0000000
N2   N   0.554731422079117   0.614455171184095   0.375000000000000   1.0000000
N2   N   0.388523545531097   0.106869832183430   0.375000000000000   1.0000000
N2   N   0.888963527794001   0.611148430563672   0.375000000000000   1.0000000
N2   N   0.723947004195311   0.111542990323114   0.375000000000000   1.0000000
N2   N   0.055526015806467   0.777765945510144   0.875000000000000   1.0000000
N2   N   0.388876193566504   0.777768618923266   0.875000000000000   1.0000000
N2   N   0.222194977006126   0.277764155169731   0.875000000000000   1.0000000
N2   N   0.722203223652016   0.777769421028354   0.875000000000000   1.0000000
N2   N   0.555537060904994   0.277773082826804   0.875000000000000   1.0000000
N2   N   0.888870106111766   0.277766497537925   0.875000000000000   1.0000000
N2   N   0.222006602174425   0.777669967753881   0.375000000000000   1.0000000
N2   N   0.057665200747148   0.278697142790746   0.375000000000000   1.0000000
N2   N   0.390000425704404   0.270960909471108   0.375000000000000   1.0000000
N2   N   0.556427555643138   0.780097166307315   0.375000000000000   1.0000000
N2   N   0.889812277593465   0.778538015464059   0.375000000000000   1.0000000
N2   N   0.723632571868581   0.277471488489586   0.375000000000000   1.0000000
N2   N   0.055530018263876   0.944435770785251   0.875000000000000   1.0000000
N2   N   0.388876193566504   0.944440907976574   0.875000000000000   1.0000000
N2   N   0.222195991428050   0.444426971576628   0.875000000000000   1.0000000
N2   N   0.555535163082209   0.444434248207769   0.875000000000000   1.0000000
N2   N   0.722207475637485   0.944437653985979   0.875000000000000   1.0000000
N2   N   0.888864023506170   0.444427469189898   0.875000000000000   1.0000000
N2   N   0.056524373287047   0.444914584160179   0.375000000000000   1.0000000
N2   N   0.222004138147345   0.943484576515321   0.375000000000000   1.0000000
N2   N   0.556654547601238   0.944993940467284   0.375000000000000   1.0000000
N2   N   0.390000425704404   0.452372849566632   0.375000000000000   1.0000000
N2   N   0.890617786478920   0.945732861401599   0.375000000000000   1.0000000
N2   N   0.723067415291946   0.445251118858583   0.375000000000000   1.0000000
N2   N   0.222199335269025   0.611094181549169   0.875000000000000   1.0000000
N2   N   0.055529921543340   0.111099518099409   0.875000000000000   1.0000000
N2   N   0.555537060904994   0.611097311411526   0.875000000000000   1.0000000
N2   N   0.388871993439931   0.111109164547130   0.875000000000000   1.0000000
N2   N   0.888858420745456   0.611095877039401   0.875000000000000   1.0000000
N2   N   0.055466101902488   0.611173011738517   0.375000000000000   1.0000000
N2   N   0.722207475637485   0.111103154984842   0.875000000000000   1.0000000
N2   N   0.223536864890743   0.111062051445906   0.375000000000000   1.0000000
N2   N   0.388523545531097   0.614987046681010   0.375000000000000   1.0000000
N2   N   0.723067415291946   0.611149629766698   0.375000000000000   1.0000000
N2   N   0.556427555643138   0.109663722669159   0.375000000000000   1.0000000
N2   N   0.388871993439931   0.611096162226144   0.875000000000000   1.0000000
N2   N   0.890901164112931   0.112117248723138   0.375000000000000   1.0000000
N2   N   0.222201124682992   0.777767229008164   0.875000000000000   1.0000000
N2   N   0.055529921543340   0.277763736777267   0.875000000000000   1.0000000
N2   N   0.388867434472356   0.277769809396598   0.875000000000000   1.0000000
N2   N   0.555541587781853   0.777768868689403   0.875000000000000   1.0000000
N2   N   0.888864023506170   0.777769887649606   0.875000000000000   1.0000000
N2   N   0.722203223652016   0.277767135956998   0.875000000000000   1.0000000
N2   N   0.055466101902488   0.777626423497307   0.375000000000000   1.0000000
N2   N   0.389086607510637   0.779050701013922   0.375000000000000   1.0000000
N2   N   0.225244666604699   0.279288999969017   0.375000000000000   1.0000000
N2   N   0.723632571868581   0.779494416712330   0.375000000000000   1.0000000
N2   N   0.554731422079117   0.273609584228358   0.375000000000000   1.0000000
N2   N   0.890617786478920   0.278218258410656   0.375000000000000   1.0000000
N2   N   0.055530018263876   0.444427580811955   0.875000000000000   1.0000000
N2   N   0.222199335269025   0.944438487053192   0.875000000000000   1.0000000
N2   N   0.555543231948221   0.944438282640776   0.875000000000000   1.0000000
N2   N   0.388867434472356   0.444430958409093   0.875000000000000   1.0000000
N2   N   0.888870106111766   0.944436941907176   0.875000000000000   1.0000000
N2   N   0.056524373287047   0.944943122460196   0.375000000000000   1.0000000
N2   N   0.722196672127072   0.444430922630045   0.875000000000000   1.0000000
N2   N   0.389086607510637   0.943369239830051   0.375000000000000   1.0000000
N2   N   0.223536864890743   0.445808146778173   0.375000000000000   1.0000000
N2   N   0.222004138147345   0.611852894965359   0.375000000000000   1.0000000
N2   N   0.723947004195311   0.945737347205533   0.375000000000000   1.0000000
N2   N   0.889812277593465   0.444607595462741   0.375000000000000   1.0000000
N2   N   0.055526015806467   0.611093403629660   0.875000000000000   1.0000000
N2   N   0.222195991428050   0.111102353184757   0.875000000000000   1.0000000
N2   N   0.722196672127072   0.611099082830363   0.875000000000000   1.0000000
N2   N   0.555541587781853   0.111106052425786   0.875000000000000   1.0000000
N2   N   0.888870971306953   0.111102152320148   0.875000000000000   1.0000000
B2   B   0.112044791050669   0.055891284038059   0.375000000000000   1.0000000
B2   B   0.620070571789406   0.576015415569698   0.375000000000000   1.0000000
B2   B   0.445039406541456   0.052757712500008   0.375000000000000   1.0000000
B2   B   0.945404423640619   0.555743249698537   0.375000000000000   1.0000000
B2   B   0.780077261733897   0.056705297533616   0.375000000000000   1.0000000
B2   B   0.111103475691830   0.722218404512580   0.875000000000000   1.0000000
B2   B   0.444416745276482   0.722245487638016   0.875000000000000   1.0000000
B2   B   0.277672342580558   0.222157772938855   0.875000000000000   1.0000000
B2   B   0.777810332761496   0.722289967456774   0.875000000000000   1.0000000
B2   B   0.611113397164384   0.222160316897997   0.875000000000000   1.0000000
B2   B   0.944420504950570   0.222195535253183   0.875000000000000   1.0000000
B2   B   0.277775413948962   0.722855057720526   0.375000000000000   1.0000000
B2   B   0.112915360517714   0.223124346925521   0.375000000000000   1.0000000
B2   B   0.442896854743108   0.214380757673050   0.375000000000000   1.0000000
B2   B   0.613615790620178   0.728418454095336   0.375000000000000   1.0000000
B2   B   0.945404423640619   0.722994507275416   0.375000000000000   1.0000000
B2   B   0.780163293773794   0.221957880115145   0.375000000000000   1.0000000
B2   B   0.111087317354155   0.888882994769926   0.875000000000000   1.0000000
B2   B   0.444429304000689   0.888881318667009   0.875000000000000   1.0000000
B2   B   0.277672342580558   0.388847902975032   0.875000000000000   1.0000000
B2   B   0.611112861794102   0.388852772666124   0.875000000000000   1.0000000
B2   B   0.777793676128674   0.888943429427009   0.875000000000000   1.0000000
B2   B   0.944447126445547   0.388856743833701   0.875000000000000   1.0000000
B2   B   0.112044791050669   0.389486840345939   0.375000000000000   1.0000000
B2   B   0.277775413948962   0.888253689561764   0.375000000000000   1.0000000
B2   B   0.613125358112199   0.891238445675440   0.375000000000000   1.0000000
B2   B   0.945986419552345   0.890435755916432   0.375000000000000   1.0000000
B2   B   0.780666990890930   0.387714089535553   0.375000000000000   1.0000000
B2   B   0.277714190978161   0.555542562367752   0.875000000000000   1.0000000
B2   B   0.111050576030628   0.055530732514720   0.875000000000000   1.0000000
B2   B   0.611112861794102   0.555593422461308   0.875000000000000   1.0000000
B2   B   0.444416745276482   0.055504590971802   0.875000000000000   1.0000000
B2   B   0.944465931080030   0.555547771971413   0.875000000000000   1.0000000
B2   B   0.111194004010013   0.555871114777883   0.375000000000000   1.0000000
B2   B   0.777783521372724   0.055558427353030   0.875000000000000   1.0000000
B2   B   0.277123231154614   0.053452126313499   0.375000000000000   1.0000000
B2   B   0.442896854743108   0.561849430403394   0.375000000000000   1.0000000
B2   B   0.780352170120908   0.556842751727122   0.375000000000000   1.0000000
B2   B   0.613125358112199   0.055220245770088   0.375000000000000   1.0000000
B2   B   0.444385164273454   0.555568172426329   0.875000000000000   1.0000000
B2   B   0.946529067985738   0.056970118117648   0.375000000000000   1.0000000
B2   B   0.277749281989126   0.722215281537057   0.875000000000000   1.0000000
B2   B   0.111029379105726   0.222181356219527   0.875000000000000   1.0000000
B2   B   0.444385164273454   0.222150325180460   0.875000000000000   1.0000000
B2   B   0.611113397164384   0.722286413599714   0.875000000000000   1.0000000
B2   B   0.944465931080030   0.722251492441951   0.875000000000000   1.0000000
B2   B   0.777793676128674   0.222183580034993   0.875000000000000   1.0000000
B2   B   0.111204031705342   0.722268682519334   0.375000000000000   1.0000000
B2   B   0.445039406541456   0.725615027374783   0.375000000000000   1.0000000
B2   B   0.277739044760311   0.221313861030661   0.375000000000000   1.0000000
B2   B   0.780666990890930   0.726286234688703   0.375000000000000   1.0000000
B2   B   0.613615790620178   0.218530669858171   0.375000000000000   1.0000000
B2   B   0.946529067985738   0.222892283201426   0.375000000000000   1.0000000
B2   B   0.111050576030628   0.388853176849236   0.875000000000000   1.0000000
B2   B   0.277749281989126   0.888867333785397   0.875000000000000   1.0000000
B2   B   0.611116219483764   0.888919700315383   0.875000000000000   1.0000000
B2   B   0.444362886028400   0.388848109680865   0.875000000000000   1.0000000
B2   B   0.944447126445547   0.888923715945174   0.875000000000000   1.0000000
B2   B   0.111194004010013   0.888656222565458   0.375000000000000   1.0000000
B2   B   0.777810332761496   0.388853698638049   0.875000000000000   1.0000000
B2   B   0.445387786414205   0.889360559873767   0.375000000000000   1.0000000
B2   B   0.277739044760311   0.389758517062978   0.375000000000000   1.0000000
B2   B   0.277123231154614   0.557004438174450   0.375000000000000   1.0000000
B2   B   0.620070571789405   0.377388489553038   0.375000000000000   1.0000000
B2   B   0.780163293773794   0.891538746991977   0.375000000000000   1.0000000
B2   B   0.945986419552345   0.388883996969242   0.375000000000000   1.0000000
B2   B   0.111087317354155   0.555537655917558   0.875000000000000   1.0000000
B2   B   0.277714190978161   0.055504961943744   0.875000000000000   1.0000000
B2   B   0.777816735207651   0.555575034270494   0.875000000000000   1.0000000
B2   B   0.611116219483764   0.055529852501709   0.875000000000000   1.0000000
B2   B   0.944420504950570   0.055558303030722   0.875000000000000   1.0000000
B2   B   0.055505391831149   0.111060357409978   0.124759201741729   1.0000000
B2   B   0.555462057923271   0.611297528960317   0.124777221257138   1.0000000
B2   B   0.388720605975896   0.110807652381581   0.124721003237243   1.0000000
B2   B   0.889160985522889   0.611247159428116   0.124846061540815   1.0000000
B2   B   0.722220145864269   0.111046829155781   0.124709740618276   1.0000000
B2   B   0.055684307193016   0.777825114559530   0.625238383650449   1.0000000
B2   B   0.388792112635873   0.777820958148572   0.625229396716221   1.0000000
B2   B   0.222030954473507   0.277682143903421   0.625465964024903   1.0000000
B2   B   0.722300087051676   0.777964423031877   0.625199129527024   1.0000000
B2   B   0.555462057923271   0.277497862296290   0.625222778742862   1.0000000
B2   B   0.888949944376624   0.277773715290658   0.625252403112882   1.0000000
B2   B   0.222216735084434   0.777775034208886   0.124769051226609   1.0000000
B2   B   0.055505391831149   0.277778367754506   0.124759201741729   1.0000000
B2   B   0.388591397309405   0.277441635001127   0.124389075736158   1.0000000
B2   B   0.555474680270768   0.777917274299013   0.124754297796749   1.0000000
B2   B   0.889083453175631   0.777916814744534   0.124809108379601   1.0000000
B2   B   0.722300087051676   0.277668997353135   0.124800870472976   1.0000000
B2   B   0.055586446938289   0.944418232526441   0.625234700674825   1.0000000
B2   B   0.388792112635873   0.944304487820638   0.625229396716221   1.0000000
B2   B   0.222069826685602   0.444496488032025   0.625327918202818   1.0000000
B2   B   0.555525923288957   0.444429628311143   0.625025545836171   1.0000000
B2   B   0.722220145864269   0.944506650041823   0.625290259381724   1.0000000
B2   B   0.889083453175631   0.444499971764433   0.625190891620400   1.0000000
B2   B   0.055586446938289   0.444501547745177   0.124765299325174   1.0000000
B2   B   0.222170263441548   0.944314875264816   0.124768637677512   1.0000000
B2   B   0.555484419432422   0.944408876382875   0.124722599931265   1.0000000
B2   B   0.388591397309405   0.444483095641613   0.124389075736158   1.0000000
B2   B   0.888949944376624   0.944509562419302   0.124747596887118   1.0000000
B2   B   0.722443101456322   0.444481359115209   0.125005961839391   1.0000000
B2   B   0.222170263441548   0.611188721510068   0.625231362322488   1.0000000
B2   B   0.055505391831149   0.111060357409978   0.625240798258271   1.0000000
B2   B   0.555462057923271   0.611297528960317   0.625222778742862   1.0000000
B2   B   0.388720605975896   0.110807652381581   0.625278996762756   1.0000000
B2   B   0.889160985522889   0.611247159428116   0.625153938459185   1.0000000
B2   B   0.055684307193016   0.611192525966823   0.124761616349551   1.0000000
B2   B   0.722220145864269   0.111046829155781   0.625290259381724   1.0000000
B2   B   0.222069826685602   0.110906671986912   0.124672081797182   1.0000000
B2   B   0.388720605975896   0.611246286927658   0.124721003237243   1.0000000
B2   B   0.722443101456322   0.611295075674448   0.125005961839391   1.0000000
B2   B   0.555474680270768   0.110890739305090   0.124754297796749   1.0000000
B2   B   0.388720605975896   0.611246286927658   0.625278996762756   1.0000000
B2   B   0.888897513214736   0.111115423274039   0.124742053089443   1.0000000
B2   B   0.222216735084434   0.777775034208886   0.625230948773391   1.0000000
B2   B   0.055505391831149   0.277778367754506   0.625240798258271   1.0000000
B2   B   0.388591397309405   0.277441635001127   0.625610924263842   1.0000000
B2   B   0.555474680270768   0.777917274299013   0.625245702203251   1.0000000
B2   B   0.889083453175631   0.777916814744534   0.625190891620400   1.0000000
B2   B   0.722300087051676   0.277668997353135   0.625199129527024   1.0000000
B2   B   0.055684307193016   0.777825114559530   0.124761616349551   1.0000000
B2   B   0.388792112635873   0.777820958148572   0.124770603283780   1.0000000
B2   B   0.222030954473507   0.277682143903421   0.124534035975097   1.0000000
B2   B   0.722300087051676   0.777964423031877   0.124800870472976   1.0000000
B2   B   0.555462057923271   0.277497862296290   0.124777221257138   1.0000000
B2   B   0.888949944376624   0.277773715290658   0.124747596887118   1.0000000
B2   B   0.055586446938289   0.444501547745177   0.625234700674825   1.0000000
B2   B   0.222170263441548   0.944314875264816   0.625231362322488   1.0000000
B2   B   0.555484419432422   0.944408876382875   0.625277400068735   1.0000000
B2   B   0.388591397309405   0.444483095641613   0.625610924263842   1.0000000
B2   B   0.888949944376624   0.944509562419302   0.625252403112882   1.0000000
B2   B   0.055586446938289   0.944418232526441   0.124765299325174   1.0000000
B2   B   0.722443101456322   0.444481359115209   0.624994038160608   1.0000000
B2   B   0.388792112635873   0.944304487820638   0.124770603283780   1.0000000
B2   B   0.222069826685602   0.444496488032025   0.124672081797182   1.0000000
B2   B   0.222170263441548   0.611188721510068   0.124768637677512   1.0000000
B2   B   0.555525923288957   0.444429628311143   0.124974454163829   1.0000000
B2   B   0.722220145864269   0.944506650041823   0.124709740618276   1.0000000
B2   B   0.889083453175631   0.444499971764433   0.124809108379601   1.0000000
B2   B   0.055684307193016   0.611192525966823   0.625238383650449   1.0000000
B2   B   0.222069826685602   0.110906671986912   0.625327918202818   1.0000000
B2   B   0.722443101456322   0.611295075674448   0.624994038160608   1.0000000
B2   B   0.555474680270768   0.110890739305090   0.625245702203251   1.0000000
B2   B   0.888897513214736   0.111115423274039   0.625257946910558   1.0000000


