data_1
_audit_creation_method   'vasp2cif'
_cell_length_a    17.5279
_cell_length_b    17.52789999999977
_cell_length_c    15.0
_cell_angle_alpha    90.0
_cell_angle_beta    90.0
_cell_angle_gamma    120.00000000000043

_symmetry_space_group_name_H-M    'P 1'
loop_
_atom_site_label
_atom_site_type_symbol
_atom_site_fract_x
_atom_site_fract_y
_atom_site_fract_z
_atom_site_occupancy
B2   B   0.904491531729965   0.952095459126720   0.111014358743169   1.0000000
B2   B   0.904713330716000   0.095212202849272   0.111036231179953   1.0000000
B2   B   0.904764749369850   0.238153452294713   0.111040677725880   1.0000000
B2   B   0.904566719543120   0.380991277476594   0.110998043320517   1.0000000
B2   B   0.904191664497590   0.523851255573402   0.111003534246068   1.0000000
B2   B   0.905232350387409   0.666894996972227   0.111057418499499   1.0000000
B2   B   0.904526496844805   0.809201397386034   0.111033967261121   1.0000000
B2   B   0.047323032983649   0.952127451994315   0.111009039463504   1.0000000
B2   B   0.047474176377670   0.095133853980401   0.111010188036888   1.0000000
B2   B   0.047922930341790   0.238296821298705   0.111003437750874   1.0000000
B2   B   0.047844915438656   0.381010407656192   0.111021808651340   1.0000000
B2   B   0.047302602332730   0.523761916999440   0.111010972554420   1.0000000
B2   B   0.047617756011358   0.666664378822492   0.111018859572032   1.0000000
B2   B   0.047685322093881   0.809561151101825   0.111001108026735   1.0000000
B2   B   0.190323605185298   0.952166388393237   0.110998971495423   1.0000000
B2   B   0.190129992547391   0.094754222658117   0.111039718048504   1.0000000
B2   B   0.190680324687536   0.238099874452736   0.111005507690344   1.0000000
B2   B   0.191693037543300   0.381486905465423   0.110999613410900   1.0000000
B2   B   0.190424918614186   0.523879504470621   0.111057683051813   1.0000000
B2   B   0.190291547110507   0.666762030510000   0.111052127103049   1.0000000
B2   B   0.190421258545428   0.809550346234542   0.110999719404788   1.0000000
B2   B   0.333334503459178   0.952251873696514   0.111018173675289   1.0000000
B2   B   0.333143410896517   0.094436992186432   0.111064537326196   1.0000000
B2   B   0.332985651909865   0.236479986383189   0.111044558327349   1.0000000
B2   B   0.334927300882938   0.379737251466263   0.110947990987318   1.0000000
B2   B   0.334175114917800   0.525987696372870   0.110954101887107   1.0000000
B2   B   0.333129742184044   0.667784431136430   0.111074893264758   1.0000000
B2   B   0.333293424073317   0.809932445875472   0.111054557505990   1.0000000
B2   B   0.476327298726619   0.952363556948618   0.111012320284942   1.0000000
B2   B   0.476265370093130   0.094931895684169   0.111001009748328   1.0000000
B2   B   0.475954127057143   0.237137850167088   0.111025052745746   1.0000000
B2   B   0.475630698677088   0.379438587391476   0.111119054074942   1.0000000
B2   B   0.475378865593399   0.666571247223017   0.111056200079272   1.0000000
B2   B   0.476260549513465   0.809593368635248   0.111054670335778   1.0000000
B2   B   0.619096037562924   0.952259576426270   0.111022015031634   1.0000000
B2   B   0.619151820868370   0.095416840572138   0.111001817127920   1.0000000
B2   B   0.618994513323161   0.238598131187736   0.111009163416067   1.0000000
B2   B   0.617765507927534   0.381384030733175   0.111007696294151   1.0000000
B2   B   0.618460060230660   0.665294172597950   0.111046478389155   1.0000000
B2   B   0.618905296518636   0.808977613072420   0.110995176091714   1.0000000
B2   B   0.761762436142698   0.952117499130722   0.111004074704419   1.0000000
B2   B   0.761884104295391   0.095238957660137   0.111042422693340   1.0000000
B2   B   0.761789578329580   0.238259291842758   0.111046828472511   1.0000000
B2   B   0.761449334397751   0.381193873220414   0.111012413015324   1.0000000
B2   B   0.761463145255803   0.524693035374195   0.111022463559911   1.0000000
B2   B   0.762325156259605   0.666190899102723   0.111045767588099   1.0000000
B2   B   0.761496532239907   0.808942023282628   0.111002375375667   1.0000000
C2   C   0.386794194625058   0.479422556849894   0.110814814726090   1.0000000
C2   C   0.477818823559732   0.525950109701670   0.111137809688162   1.0000000
C2   C   0.527614115378035   0.480533042055441   0.111295353565666   1.0000000
C2   C   0.618618234809424   0.524658154872867   0.111164851134403   1.0000000
N2   N   0.951897838994899   0.904238681911909   0.111001862278333   1.0000000
N2   N   0.952041469095470   0.047261356616276   0.111004705821075   1.0000000
N2   N   0.952343851015219   0.190467924365994   0.111017572635466   1.0000000
N2   N   0.952261885352076   0.333421074231984   0.111001849673230   1.0000000
N2   N   0.951766009463288   0.476260768808998   0.110977940989674   1.0000000
N2   N   0.952189100227339   0.619029644253989   0.111015500473636   1.0000000
N2   N   0.952271801166806   0.761815000381189   0.111025179072963   1.0000000
N2   N   0.094993142469368   0.904554213052022   0.110977299796450   1.0000000
N2   N   0.094789897868950   0.047139779375439   0.111004808129280   1.0000000
N2   N   0.095120713224734   0.190232494054850   0.110984628312691   1.0000000
N2   N   0.095695411040172   0.333570961391109   0.110993960708421   1.0000000
N2   N   0.094912880829961   0.476289311011636   0.111015484619352   1.0000000
N2   N   0.094956318030701   0.619060102803923   0.111012259429739   1.0000000
N2   N   0.095074465456249   0.761843025648663   0.110984783114116   1.0000000
N2   N   0.238027434772892   0.904668379754692   0.110985491473308   1.0000000
N2   N   0.237865295927142   0.047124923043254   0.111024420954275   1.0000000
N2   N   0.237740980810389   0.189603831203547   0.111016313312478   1.0000000
N2   N   0.238717566478115   0.333014522421462   0.110974465291466   1.0000000
N2   N   0.238282468000048   0.476954707111049   0.111003241640776   1.0000000
N2   N   0.237902180061146   0.619463179595150   0.111048550978830   1.0000000
N2   N   0.237991103670098   0.762054585772450   0.111018156016554   1.0000000
N2   N   0.381112084211087   0.904963400177653   0.111014116869184   1.0000000
N2   N   0.381057882190509   0.047249072302452   0.111010923902674   1.0000000
N2   N   0.380915801621138   0.189259792225561   0.111038544390604   1.0000000
N2   N   0.380957579221725   0.330768559380758   0.111016807556635   1.0000000
N2   N   0.381067326823631   0.621098040030423   0.111035593242750   1.0000000
N2   N   0.381104458726770   0.762757691128626   0.111050777401003   1.0000000
N2   N   0.523990751274257   0.904764864006097   0.111015000811772   1.0000000
N2   N   0.524014927959830   0.047560524832945   0.110972849965990   1.0000000
N2   N   0.523959479573780   0.190189873288928   0.110996319321421   1.0000000
N2   N   0.523691012288817   0.332472669354136   0.111002442864313   1.0000000
N2   N   0.523682496275832   0.618288451502683   0.111080353604514   1.0000000
N2   N   0.524026385301473   0.761774319297174   0.111012257045888   1.0000000
N2   N   0.666576061379343   0.904267397454701   0.110987953588031   1.0000000
N2   N   0.666682006274256   0.047595969754692   0.111007108732724   1.0000000
N2   N   0.666621310252127   0.190869783538481   0.111008653263125   1.0000000
N2   N   0.666383975475748   0.334488596037268   0.110984994424600   1.0000000
N2   N   0.665073431487679   0.478730573206680   0.111031109822830   1.0000000
N2   N   0.666357949881010   0.616612781598361   0.111039118621477   1.0000000
N2   N   0.666201742196565   0.760449731828211   0.110979011671921   1.0000000
N2   N   0.809084270354344   0.904083896993896   0.110989414317863   1.0000000
N2   N   0.809342769688488   0.047379639064833   0.111014945527299   1.0000000
N2   N   0.809378737704804   0.190539617381348   0.111031984351481   1.0000000
N2   N   0.809150532506673   0.333627856490160   0.111010356489725   1.0000000
N2   N   0.808373391000843   0.476526991267481   0.110988284043300   1.0000000
N2   N   0.809783674897003   0.619254985480996   0.111029837575273   1.0000000
N2   N   0.808830734866251   0.761010268998953   0.111011139517409   1.0000000


