data_1
_audit_creation_method   'vasp2cif'
_cell_length_a    14.93631414619966
_cell_length_b    14.936314146199727
_cell_length_c    13.341276283792837
_cell_angle_alpha    90.0
_cell_angle_beta    90.0
_cell_angle_gamma    119.99999999999984

_symmetry_space_group_name_H-M    'P 1'
loop_
_atom_site_label
_atom_site_type_symbol
_atom_site_fract_x
_atom_site_fract_y
_atom_site_fract_z
_atom_site_occupancy
Si2   Si   0.410812588496140   0.372072960914732   0.375000000000000   1.0000000
Si2   Si   0.566490788926126   0.449912061129724   0.375000000000000   1.0000000
N2   N   0.111178989547631   0.055581498105732   0.125118641502308   1.0000000
N2   N   0.611239434671012   0.555770142747497   0.125769192849894   1.0000000
N2   N   0.444474413012893   0.055538853883235   0.125119790927347   1.0000000
N2   N   0.944464300419583   0.555567280278314   0.125237357562860   1.0000000
N2   N   0.777853144280569   0.055593238806953   0.124910605249028   1.0000000
N2   N   0.111116011274593   0.722224672303957   0.624803220539575   1.0000000
N2   N   0.444474413012893   0.722268892462993   0.624880209072653   1.0000000
N2   N   0.277882023052164   0.222253172276771   0.624308247195156   1.0000000
N2   N   0.777863442154567   0.722315400032883   0.624934872666110   1.0000000
N2   N   0.611180358340281   0.222167904498147   0.625069443362069   1.0000000
N2   N   0.944532346673399   0.222260607187419   0.625036327802399   1.0000000
N2   N   0.277784412602228   0.722236988277487   0.125178634487802   1.0000000
N2   N   0.111225851588243   0.222279592460782   0.125203178945558   1.0000000
N2   N   0.444527099289804   0.222229686009636   0.125618198272441   1.0000000
N2   N   0.611180358340281   0.722345787175463   0.124930556637931   1.0000000
N2   N   0.944464300419583   0.722230353474598   0.125237357562860   1.0000000
N2   N   0.777851379965322   0.222225143940466   0.124868782721216   1.0000000
N2   N   0.111132703720309   0.888888695362347   0.624814767129622   1.0000000
N2   N   0.444456610814361   0.888894972073841   0.624892041207370   1.0000000
N2   N   0.277882023052164   0.388962184108728   0.624308247195156   1.0000000
N2   N   0.611239434671012   0.388802625256842   0.624230807150106   1.0000000
N2   N   0.777851379965322   0.888959569358184   0.625131217278783   1.0000000
N2   N   0.944509034120255   0.388905968343154   0.624992913439843   1.0000000
N2   N   0.111178989547631   0.388930824775228   0.125118641502308   1.0000000
N2   N   0.277784412602228   0.888880757658069   0.125178634487802   1.0000000
N2   N   0.611156625606927   0.888946267263193   0.124919244485394   1.0000000
N2   N   0.444673347836274   0.389003340584797   0.127059572052675   1.0000000
N2   N   0.944509034120255   0.888936399110429   0.125007086560156   1.0000000
N2   N   0.777863442154567   0.388881375455014   0.125065127333890   1.0000000
N2   N   0.277820163213157   0.555605414905644   0.624694769471749   1.0000000
N2   N   0.111178989547631   0.055581498105732   0.624881358497691   1.0000000
N2   N   0.611239434671012   0.555770142747497   0.624230807150106   1.0000000
N2   N   0.444474413012893   0.055538853883235   0.624880209072653   1.0000000
N2   N   0.944464300419583   0.555567280278314   0.624762642437141   1.0000000
N2   N   0.111132703720309   0.555577341691291   0.125185232870378   1.0000000
N2   N   0.777853144280569   0.055593238806953   0.625089394750973   1.0000000
N2   N   0.277820163213157   0.055548081640848   0.125305230528250   1.0000000
N2   N   0.444527099289804   0.555630746613503   0.125618198272441   1.0000000
N2   N   0.777784194973724   0.555558764153531   0.125580690265333   1.0000000
N2   N   0.611156625606927   0.055543691677063   0.124919244485394   1.0000000
N2   N   0.444527099289804   0.555630746613503   0.624381801727559   1.0000000
N2   N   0.944532346673399   0.055605072819316   0.124963672197602   1.0000000
N2   N   0.277784412602228   0.722236988277487   0.624821365512198   1.0000000
N2   N   0.111225851588243   0.222279592460782   0.624796821054441   1.0000000
N2   N   0.444527099289804   0.222229686009636   0.624381801727559   1.0000000
N2   N   0.611180358340281   0.722345787175463   0.625069443362069   1.0000000
N2   N   0.944464300419583   0.722230353474598   0.624762642437141   1.0000000
N2   N   0.777851379965322   0.222225143940466   0.625131217278783   1.0000000
N2   N   0.111116011274593   0.722224672303957   0.125196779460432   1.0000000
N2   N   0.444474413012893   0.722268892462993   0.125119790927347   1.0000000
N2   N   0.277882023052164   0.222253172276771   0.125691752804844   1.0000000
N2   N   0.777863442154567   0.722315400032883   0.125065127333890   1.0000000
N2   N   0.611180358340281   0.222167904498147   0.124930556637931   1.0000000
N2   N   0.944532346673399   0.222260607187419   0.124963672197602   1.0000000
N2   N   0.111178989547631   0.388930824775228   0.624881358497691   1.0000000
N2   N   0.277784412602228   0.888880757658069   0.624821365512198   1.0000000
N2   N   0.611156625606927   0.888946267263193   0.625080755514606   1.0000000
N2   N   0.444673347836274   0.389003340584797   0.622940427947324   1.0000000
N2   N   0.944509034120255   0.888936399110429   0.624992913439843   1.0000000
N2   N   0.111132703720309   0.888888695362347   0.125185232870378   1.0000000
N2   N   0.777863442154567   0.388881375455014   0.624934872666110   1.0000000
N2   N   0.444456610814361   0.888894972073841   0.125107958792629   1.0000000
N2   N   0.277882023052164   0.388962184108728   0.125691752804844   1.0000000
N2   N   0.277820163213157   0.555605414905644   0.125305230528250   1.0000000
N2   N   0.611239434671012   0.388802625256842   0.125769192849894   1.0000000
N2   N   0.777851379965322   0.888959569358184   0.124868782721216   1.0000000
N2   N   0.944509034120255   0.388905968343154   0.125007086560156   1.0000000
N2   N   0.111132703720309   0.555577341691291   0.624814767129622   1.0000000
N2   N   0.277820163213157   0.055548081640848   0.624694769471749   1.0000000
N2   N   0.777784194973724   0.555558764153531   0.624419309734666   1.0000000
N2   N   0.611156625606927   0.055543691677063   0.625080755514606   1.0000000
N2   N   0.944532346673399   0.055605072819316   0.625036327802399   1.0000000
N2   N   0.055762323250604   0.111142323492443   0.375000000000000   1.0000000
N2   N   0.556460024766616   0.623443775003953   0.375000000000000   1.0000000
N2   N   0.387034537540067   0.102678724854363   0.375000000000000   1.0000000
N2   N   0.890333814594917   0.611833573964129   0.375000000000000   1.0000000
N2   N   0.723729442134897   0.110524504738774   0.375000000000000   1.0000000
N2   N   0.055547611004336   0.777776983923372   0.875000000000000   1.0000000
N2   N   0.388890246958812   0.777775742370516   0.875000000000000   1.0000000
N2   N   0.222216765644406   0.277775049488867   0.875000000000000   1.0000000
N2   N   0.722218344497256   0.777775074639450   0.875000000000000   1.0000000
N2   N   0.555546270945305   0.277771353796290   0.875000000000000   1.0000000
N2   N   0.888886785353822   0.277777261962476   0.875000000000000   1.0000000
N2   N   0.221124960785309   0.777229147059319   0.375000000000000   1.0000000
N2   N   0.055762323250604   0.277953333091496   0.375000000000000   1.0000000
N2   N   0.374858481829325   0.251353485145786   0.375000000000000   1.0000000
N2   N   0.555954536040905   0.783504235196875   0.375000000000000   1.0000000
N2   N   0.892749626331049   0.781486045507761   0.375000000000000   1.0000000
N2   N   0.724767961513904   0.275418600631573   0.375000000000000   1.0000000
N2   N   0.055551682623025   0.944446051601805   0.875000000000000   1.0000000
N2   N   0.388890246958812   0.944447837921622   0.875000000000000   1.0000000
N2   N   0.222218877606072   0.444436766949937   0.875000000000000   1.0000000
N2   N   0.555549356395384   0.444441344864353   0.875000000000000   1.0000000
N2   N   0.722219155532378   0.944443021593259   0.875000000000000   1.0000000
N2   N   0.888885269842097   0.444440049628587   0.875000000000000   1.0000000
N2   N   0.054441414545676   0.445249806706153   0.375000000000000   1.0000000
N2   N   0.220547402896013   0.940954492038979   0.375000000000000   1.0000000
N2   N   0.555896616340013   0.944614974836670   0.375000000000000   1.0000000
N2   N   0.374858481829325   0.456838330016875   0.375000000000000   1.0000000
N2   N   0.890454804390115   0.946348197805264   0.375000000000000   1.0000000
N2   N   0.731786888347790   0.443282269183549   0.375000000000000   1.0000000
N2   N   0.222220182090535   0.611103137765556   0.875000000000000   1.0000000
N2   N   0.055550528821540   0.111108695672281   0.875000000000000   1.0000000
N2   N   0.555546270945305   0.611108250482349   0.875000000000000   1.0000000
N2   N   0.388890755722367   0.111120435620511   0.875000000000000   1.0000000
N2   N   0.888877203622659   0.611105268478000   0.875000000000000   1.0000000
N2   N   0.055350278828698   0.611574093498727   0.375000000000000   1.0000000
N2   N   0.722219155532378   0.111109467272456   0.875000000000000   1.0000000
N2   N   0.215335383330199   0.101695627997406   0.375000000000000   1.0000000
N2   N   0.387034537540067   0.617689146019048   0.375000000000000   1.0000000
N2   N   0.731786888347790   0.621837952497577   0.375000000000000   1.0000000
N2   N   0.555954536040905   0.105783634177367   0.375000000000000   1.0000000
N2   N   0.388890755722367   0.611103653435197   0.875000000000000   1.0000000
N2   N   0.890122008722336   0.111727671027840   0.375000000000000   1.0000000
N2   N   0.222219419597526   0.777776376465429   0.875000000000000   1.0000000
N2   N   0.055550528821540   0.277775166482595   0.875000000000000   1.0000000
N2   N   0.388882863134026   0.277781379269764   0.875000000000000   1.0000000
N2   N   0.555552187811808   0.777777660754078   0.875000000000000   1.0000000
N2   N   0.888885269842097   0.777778553546844   0.875000000000000   1.0000000
N2   N   0.722218344497256   0.277776603191141   0.875000000000000   1.0000000
N2   N   0.055350278828698   0.777109518663306   0.375000000000000   1.0000000
N2   N   0.387905905460187   0.779607809275525   0.375000000000000   1.0000000
N2   N   0.222556222155806   0.277944777744567   0.375000000000000   1.0000000
N2   N   0.724767961513904   0.782682694215666   0.375000000000000   1.0000000
N2   N   0.556460024766616   0.266349583096000   0.375000000000000   1.0000000
N2   N   0.890454804390115   0.277439939918187   0.375000000000000   1.0000000
N2   N   0.055551682623025   0.444438964354556   0.875000000000000   1.0000000
N2   N   0.222220182090535   0.944450377658314   0.875000000000000   1.0000000
N2   N   0.555551873448381   0.944442603390855   0.875000000000000   1.0000000
N2   N   0.388882863134026   0.444434817197590   0.875000000000000   1.0000000
N2   N   0.888886785353822   0.944442856724689   0.875000000000000   1.0000000
N2   N   0.054441414545676   0.942524941172859   0.375000000000000   1.0000000
N2   N   0.722215780287964   0.444441953524914   0.875000000000000   1.0000000
N2   N   0.387905905460187   0.941631429518006   0.375000000000000   1.0000000
N2   N   0.215335383330199   0.446973088666136   0.375000000000000   1.0000000
N2   N   0.220547402896013   0.612926244190369   0.375000000000000   1.0000000
N2   N   0.723729442134897   0.946538270729460   0.375000000000000   1.0000000
N2   N   0.892749626331049   0.444596914156618   0.375000000000000   1.0000000
N2   N   0.055547611004336   0.611103960414291   0.875000000000000   1.0000000
N2   N   0.222218877606072   0.111115443989470   0.875000000000000   1.0000000
N2   N   0.722215780287964   0.611107160096385   0.875000000000000   1.0000000
N2   N   0.555552187811808   0.111107860391057   0.875000000000000   1.0000000
N2   N   0.888886870187469   0.111110101760402   0.875000000000000   1.0000000
B2   B   0.106766089425801   0.051272803212327   0.375000000000000   1.0000000
B2   B   0.625122234918874   0.585108872709873   0.375000000000000   1.0000000
B2   B   0.444657999246676   0.050475275133673   0.375000000000000   1.0000000
B2   B   0.945525514952690   0.555576145787479   0.375000000000000   1.0000000
B2   B   0.779601500312907   0.056467416823121   0.375000000000000   1.0000000
B2   B   0.111113450522382   0.722223391927852   0.875000000000000   1.0000000
B2   B   0.444451849963510   0.722256328727247   0.875000000000000   1.0000000
B2   B   0.277718889920441   0.222182022711722   0.875000000000000   1.0000000
B2   B   0.777806310518835   0.722276470186602   0.875000000000000   1.0000000
B2   B   0.611127943926625   0.222179341265142   0.875000000000000   1.0000000
B2   B   0.944421239618655   0.222203450087197   0.875000000000000   1.0000000
B2   B   0.277028974101336   0.723342320762136   0.375000000000000   1.0000000
B2   B   0.110458331310490   0.221895832321913   0.375000000000000   1.0000000
B2   B   0.442875982268202   0.210664592157705   0.375000000000000   1.0000000
B2   B   0.613513953579853   0.732467522093578   0.375000000000000   1.0000000
B2   B   0.945525514952690   0.723282702498549   0.375000000000000   1.0000000
B2   B   0.780075629030580   0.220717193011024   0.375000000000000   1.0000000
B2   B   0.111102332228905   0.888887696492924   0.875000000000000   1.0000000
B2   B   0.444455378469269   0.888894355901295   0.875000000000000   1.0000000
B2   B   0.277718889920441   0.388870200542047   0.875000000000000   1.0000000
B2   B   0.611142799920324   0.388851736336573   0.875000000000000   1.0000000
B2   B   0.777787401906083   0.888923375579401   0.875000000000000   1.0000000
B2   B   0.944444012187345   0.388867925347911   0.875000000000000   1.0000000
B2   B   0.106766089425801   0.388826619546803   0.375000000000000   1.0000000
B2   B   0.277028974101336   0.887019986672527   0.375000000000000   1.0000000
B2   B   0.612912799290799   0.892525309504237   0.375000000000000   1.0000000
B2   B   0.945538498651683   0.890675011584859   0.375000000000000   1.0000000
B2   B   0.784547179318545   0.386792623684900   0.375000000000000   1.0000000
B2   B   0.277755993970382   0.555561055333393   0.875000000000000   1.0000000
B2   B   0.111073189715163   0.055537954333559   0.875000000000000   1.0000000
B2   B   0.611142799920324   0.555624396917080   0.875000000000000   1.0000000
B2   B   0.444451849963510   0.055528854569600   0.875000000000000   1.0000000
B2   B   0.944459289787397   0.555550555889431   0.875000000000000   1.0000000
B2   B   0.110043585687286   0.556126502983704   0.375000000000000   1.0000000
B2   B   0.777778277859851   0.055555805596593   0.875000000000000   1.0000000
B2   B   0.275273198408763   0.049997422250061   0.375000000000000   1.0000000
B2   B   0.442875982268202   0.565544723443841   0.375000000000000   1.0000000
B2   B   0.781182583398785   0.557257958366064   0.375000000000000   1.0000000
B2   B   0.612912799290799   0.053720823119891   0.375000000000000   1.0000000
B2   B   0.444434361466686   0.555589553830438   0.875000000000000   1.0000000
B2   B   0.945267591509489   0.056622897756190   0.375000000000000   1.0000000
B2   B   0.277778095096974   0.722229550469773   0.875000000000000   1.0000000
B2   B   0.111053183736379   0.222193258534854   0.875000000000000   1.0000000
B2   B   0.444434361466686   0.222178140969575   0.875000000000000   1.0000000
B2   B   0.611127943926625   0.722281935994811   0.875000000000000   1.0000000
B2   B   0.944459289787397   0.722242067231300   0.875000000000000   1.0000000
B2   B   0.777787401906083   0.222197359660010   0.875000000000000   1.0000000
B2   B   0.110716967215986   0.722025150274658   0.375000000000000   1.0000000
B2   B   0.444657999246676   0.727516057446339   0.375000000000000   1.0000000
B2   B   0.267135046300839   0.208775144466062   0.375000000000000   1.0000000
B2   B   0.784547179318545   0.731087888966974   0.375000000000000   1.0000000
B2   B   0.613513953579853   0.214379764819604   0.375000000000000   1.0000000
B2   B   0.945267591509489   0.221978027086635   0.375000000000000   1.0000000
B2   B   0.111073189715163   0.388868568714933   0.875000000000000   1.0000000
B2   B   0.277778095096974   0.888881877960523   0.875000000000000   1.0000000
B2   B   0.611122860528147   0.888915416741370   0.875000000000000   1.0000000
B2   B   0.444394356334881   0.388863844834103   0.875000000000000   1.0000000
B2   B   0.944444012187345   0.888909420172755   0.875000000000000   1.0000000
B2   B   0.110043585687286   0.887250416036903   0.375000000000000   1.0000000
B2   B   0.777806310518835   0.388863173665560   0.875000000000000   1.0000000
B2   B   0.444866747679962   0.889100040506644   0.375000000000000   1.0000000
B2   B   0.267135046300839   0.391693235168113   0.375000000000000   1.0000000
B2   B   0.275273198408763   0.558609109492037   0.375000000000000   1.0000000
B2   B   0.625122234918874   0.373346695542329   0.375000000000000   1.0000000
B2   B   0.780075629030580   0.892691769352883   0.375000000000000   1.0000000
B2   B   0.945538498651683   0.388196820400162   0.375000000000000   1.0000000
B2   B   0.111102332228905   0.555547969069309   0.875000000000000   1.0000000
B2   B   0.277755993970382   0.055528271970331   0.875000000000000   1.0000000
B2   B   0.777809693183077   0.555571513258205   0.875000000000000   1.0000000
B2   B   0.611122860528147   0.055540777120105   0.875000000000000   1.0000000
B2   B   0.944421239618655   0.055551122864793   0.875000000000000   1.0000000
B2   B   0.055567620602176   0.111096506118575   0.124865761560973   1.0000000
B2   B   0.555648361642402   0.611434465459733   0.124949395786661   1.0000000
B2   B   0.388857725326734   0.110900490416841   0.125009340153924   1.0000000
B2   B   0.889082891907590   0.611208112620467   0.125033249957764   1.0000000
B2   B   0.722282792669205   0.111085989041335   0.124731965235206   1.0000000
B2   B   0.055623884294024   0.777798670383404   0.625010803923511   1.0000000
B2   B   0.388874003990815   0.777838807830671   0.625061473068698   1.0000000
B2   B   0.222196238958024   0.277764786145680   0.624859037550418   1.0000000
B2   B   0.722342801438622   0.777981505341753   0.625325363824039   1.0000000
B2   B   0.555648361642402   0.277547229516003   0.625050604213339   1.0000000
B2   B   0.888966180960031   0.277776634297792   0.625241349176853   1.0000000
B2   B   0.222223593329524   0.777778463331427   0.124992611786800   1.0000000
B2   B   0.055567620602176   0.277804447816936   0.124865761560973   1.0000000
B2   B   0.388837687550228   0.277500969449487   0.125641889371868   1.0000000
B2   B   0.555602127146740   0.777950268277797   0.124746863295351   1.0000000
B2   B   0.889048731914561   0.777916029029146   0.124849799649125   1.0000000
B2   B   0.722342801438622   0.277694629430211   0.124674636175961   1.0000000
B2   B   0.055592087533127   0.944436046203492   0.625108816294578   1.0000000
B2   B   0.388874003990815   0.944368529493486   0.625061473068698   1.0000000
B2   B   0.222189098722161   0.444548967667624   0.624977603437457   1.0000000
B2   B   0.555925445423578   0.444629389378453   0.624504780712367   1.0000000
B2   B   0.722282792669205   0.944530136961206   0.625268034764793   1.0000000
B2   B   0.889048731914561   0.444466036218750   0.625150200350875   1.0000000
B2   B   0.055592087533127   0.444489374662964   0.124891183705422   1.0000000
B2   B   0.222208929749044   0.944352514490736   0.124987422129009   1.0000000
B2   B   0.555580832871763   0.944457083102546   0.124820523932247   1.0000000
B2   B   0.388837687550228   0.444670051434078   0.125641889371868   1.0000000
B2   B   0.888966180960031   0.944522879995574   0.124758650823148   1.0000000
B2   B   0.722550573130270   0.444477968099413   0.124992085855776   1.0000000
B2   B   0.222208929749044   0.611189748591643   0.625012577870991   1.0000000
B2   B   0.055567620602176   0.111096506118575   0.625134238439026   1.0000000
B2   B   0.555648361642402   0.611434465459733   0.625050604213339   1.0000000
B2   B   0.388857725326734   0.110900490416841   0.624990659846068   1.0000000
B2   B   0.889082891907590   0.611208112620467   0.624966750042236   1.0000000
B2   B   0.055623884294024   0.611158547243956   0.124989196076489   1.0000000
B2   B   0.722282792669205   0.111085989041335   0.625268034764793   1.0000000
B2   B   0.222189098722161   0.110973464387873   0.125022396562543   1.0000000
B2   B   0.388857725326734   0.611290568243243   0.125009340153924   1.0000000
B2   B   0.722550573130270   0.611405938364200   0.124992085855776   1.0000000
B2   B   0.555602127146740   0.110985192202271   0.124746863295351   1.0000000
B2   B   0.388857725326734   0.611290568243243   0.624990659846068   1.0000000
B2   B   0.888942290267928   0.111137811800635   0.124783723774496   1.0000000
B2   B   0.222223593329524   0.777778463331427   0.625007388213200   1.0000000
B2   B   0.055567620602176   0.277804447816936   0.625134238439026   1.0000000
B2   B   0.388837687550228   0.277500969449487   0.624358110628131   1.0000000
B2   B   0.555602127146740   0.777950268277797   0.625253136704649   1.0000000
B2   B   0.889048731914561   0.777916029029146   0.625150200350875   1.0000000
B2   B   0.722342801438622   0.277694629430211   0.625325363824039   1.0000000
B2   B   0.055623884294024   0.777798670383404   0.124989196076489   1.0000000
B2   B   0.388874003990815   0.777838807830671   0.124938526931302   1.0000000
B2   B   0.222196238958024   0.277764786145680   0.125140962449583   1.0000000
B2   B   0.722342801438622   0.777981505341753   0.124674636175961   1.0000000
B2   B   0.555648361642402   0.277547229516003   0.124949395786661   1.0000000
B2   B   0.888966180960031   0.277776634297792   0.124758650823148   1.0000000
B2   B   0.055592087533127   0.444489374662964   0.625108816294578   1.0000000
B2   B   0.222208929749044   0.944352514490736   0.625012577870991   1.0000000
B2   B   0.555580832871763   0.944457083102546   0.625179476067753   1.0000000
B2   B   0.388837687550228   0.444670051434078   0.624358110628131   1.0000000
B2   B   0.888966180960031   0.944522879995574   0.625241349176853   1.0000000
B2   B   0.055592087533127   0.944436046203492   0.124891183705422   1.0000000
B2   B   0.722550573130270   0.444477968099413   0.625007914144231   1.0000000
B2   B   0.388874003990815   0.944368529493486   0.124938526931302   1.0000000
B2   B   0.222189098722161   0.444548967667624   0.125022396562543   1.0000000
B2   B   0.222208929749044   0.611189748591643   0.124987422129009   1.0000000
B2   B   0.555925445423578   0.444629389378453   0.125495219287633   1.0000000
B2   B   0.722282792669205   0.944530136961206   0.124731965235206   1.0000000
B2   B   0.889048731914561   0.444466036218750   0.124849799649125   1.0000000
B2   B   0.055623884294024   0.611158547243956   0.625010803923511   1.0000000
B2   B   0.222189098722161   0.110973464387873   0.624977603437457   1.0000000
B2   B   0.722550573130270   0.611405938364200   0.625007914144231   1.0000000
B2   B   0.555602127146740   0.110985192202271   0.625253136704649   1.0000000
B2   B   0.888942290267928   0.111137811800635   0.625216276225504   1.0000000


