data_1
_audit_creation_method   'vasp2cif'
_cell_length_a    17.52789999999977
_cell_length_b    17.52789999999977
_cell_length_c    15.0
_cell_angle_alpha    90.0
_cell_angle_beta    90.0
_cell_angle_gamma    119.99999999999916

_symmetry_space_group_name_H-M    'P 1'
loop_
_atom_site_label
_atom_site_type_symbol
_atom_site_fract_x
_atom_site_fract_y
_atom_site_fract_z
_atom_site_occupancy
B2   B   0.904727574187068   0.951669537799209   0.111034305968153   1.0000000
B2   B   0.905862543068169   0.094680306194112   0.111077397763798   1.0000000
B2   B   0.906049421256842   0.237551996389547   0.111032660291082   1.0000000
B2   B   0.905710540464502   0.380656579816684   0.111000017358778   1.0000000
B2   B   0.903780261174030   0.523559959857389   0.111040049548328   1.0000000
B2   B   0.902403093258813   0.665818944007807   0.111116059623861   1.0000000
B2   B   0.902628858702079   0.808132990661142   0.111073895985650   1.0000000
B2   B   0.049167220788775   0.954811007163127   0.111031254140027   1.0000000
B2   B   0.049961623652377   0.097131658956982   0.111058712252089   1.0000000
B2   B   0.049373288007987   0.238907078102024   0.111098432819303   1.0000000
B2   B   0.048020406184823   0.381414994116074   0.111041602076512   1.0000000
B2   B   0.046722539946313   0.524489952777614   0.110978574753491   1.0000000
B2   B   0.046347133423260   0.667439039852702   0.111007929864155   1.0000000
B2   B   0.046973044478611   0.810677491741457   0.110985716546498   1.0000000
B2   B   0.191653820398460   0.955426620735920   0.110974477246804   1.0000000
B2   B   0.196472640973458   0.102515443305493   0.111082751389208   1.0000000
B2   B   0.194700517255375   0.242457578387720   0.111113883821564   1.0000000
B2   B   0.191033414360352   0.382801660023078   0.111068294124845   1.0000000
B2   B   0.188961852055339   0.525154737852566   0.111034332478371   1.0000000
B2   B   0.189255622042783   0.668058232678206   0.111033423867132   1.0000000
B2   B   0.190032880126855   0.811327648042622   0.110984319638211   1.0000000
B2   B   0.333851947452396   0.954368741019925   0.111016109824948   1.0000000
B2   B   0.335837096631899   0.099551778890377   0.111078750740258   1.0000000
B2   B   0.347853474219270   0.254460303391980   0.111104201679898   1.0000000
B2   B   0.336254833496319   0.387248105992318   0.111085991006912   1.0000000
B2   B   0.330551517282247   0.526931072423323   0.111037818485877   1.0000000
B2   B   0.331805003007210   0.668410725856745   0.111023994945991   1.0000000
B2   B   0.332823159917990   0.810952144578507   0.111046179190284   1.0000000
B2   B   0.476414909616741   0.951540124492344   0.110967995409904   1.0000000
B2   B   0.477427950943458   0.094157991355889   0.111076460394507   1.0000000
B2   B   0.478267214578173   0.235782102831092   0.110944749423021   1.0000000
B2   B   0.473571160865949   0.664318578114563   0.110996914701340   1.0000000
B2   B   0.475507492625112   0.808410309505066   0.111003827280213   1.0000000
B2   B   0.619170407489073   0.950485957991482   0.110946703723796   1.0000000
B2   B   0.620138974710566   0.093541187597055   0.111005682141031   1.0000000
B2   B   0.621303212005250   0.236259833612758   0.111093669474007   1.0000000
B2   B   0.623682617461200   0.380073692062988   0.110997458189918   1.0000000
B2   B   0.604597887131825   0.508940059243677   0.111323553683886   1.0000000
B2   B   0.613963987703575   0.660039276797592   0.111038291279708   1.0000000
B2   B   0.617705286118377   0.806612611445873   0.110994126488663   1.0000000
B2   B   0.761735441893996   0.950417416397029   0.111023979101097   1.0000000
B2   B   0.762836447587391   0.093735682122609   0.111017195979448   1.0000000
B2   B   0.763497790039250   0.236817660240275   0.111005677027506   1.0000000
B2   B   0.763910254068836   0.379915712198138   0.111070991446448   1.0000000
B2   B   0.759224865122760   0.521645145176343   0.111229350901645   1.0000000
B2   B   0.755212476395909   0.660773664206768   0.111118609305606   1.0000000
B2   B   0.759248798999278   0.806045023023825   0.111059419917358   1.0000000
C2   C   0.467849793234809   0.519325225206772   0.110450514933296   1.0000000
C2   C   0.500346003241876   0.460646158795435   0.110916252151293   1.0000000
N2   N   0.952619872326682   0.904701436162734   0.111024156411771   1.0000000
N2   N   0.953814717407892   0.047601871474262   0.111030246235236   1.0000000
N2   N   0.953825379181721   0.190181521198983   0.111052704065028   1.0000000
N2   N   0.953128777130503   0.332977888490248   0.110992345153602   1.0000000
N2   N   0.951812349349438   0.476109234700852   0.110960953710248   1.0000000
N2   N   0.951140414502740   0.619073868160783   0.111045914893776   1.0000000
N2   N   0.951300107274691   0.761761939507596   0.111038806039592   1.0000000
N2   N   0.096039293467877   0.906687839072959   0.110952356348502   1.0000000
N2   N   0.099211137676898   0.051473058806338   0.111038088392885   1.0000000
N2   N   0.098312585433763   0.192631456133361   0.111079577416309   1.0000000
N2   N   0.095896659699218   0.334154311019098   0.111057638330804   1.0000000
N2   N   0.094201168152645   0.476827815935912   0.110981814627995   1.0000000
N2   N   0.094069336276692   0.619958155767473   0.110962455435888   1.0000000
N2   N   0.094634191302034   0.763172363092695   0.110947961983305   1.0000000
N2   N   0.238454575881884   0.906941358546518   0.110944335236735   1.0000000
N2   N   0.240688657568698   0.051582647637110   0.111026699759422   1.0000000
N2   N   0.247529412124671   0.200304668408730   0.111107666747658   1.0000000
N2   N   0.240454647001165   0.337156571492679   0.111100381530247   1.0000000
N2   N   0.236223826088641   0.477769258409220   0.111065350947086   1.0000000
N2   N   0.236545414820113   0.620506291015673   0.111023358500230   1.0000000
N2   N   0.237424186031286   0.763529406866847   0.111020433147883   1.0000000
N2   N   0.381044320237170   0.906003528345261   0.110981357391220   1.0000000
N2   N   0.382143989025001   0.049719036222213   0.111033616165396   1.0000000
N2   N   0.384675801125320   0.195581990363776   0.111117493386526   1.0000000
N2   N   0.398110726234191   0.356148853167099   0.111066552563995   1.0000000
N2   N   0.377886827147026   0.481280855273820   0.110840684165719   1.0000000
N2   N   0.378742453231882   0.621236465168202   0.110955681390724   1.0000000
N2   N   0.380215912046329   0.763261043750317   0.111020684650062   1.0000000
N2   N   0.523802409119869   0.903522144208523   0.110911909834065   1.0000000
N2   N   0.524776799195538   0.046343206853218   0.110973837267480   1.0000000
N2   N   0.526280761383433   0.188311440519479   0.111102240883401   1.0000000
N2   N   0.532984122359124   0.326045091482793   0.110304826565747   1.0000000
N2   N   0.517778850297147   0.612716362301446   0.110829083504471   1.0000000
N2   N   0.522509147515701   0.759746210228226   0.110997464714139   1.0000000
N2   N   0.666262311832576   0.902355817696824   0.110946976163399   1.0000000
N2   N   0.667472907599845   0.045771888136685   0.110946457203482   1.0000000
N2   N   0.668477246529363   0.188541492556216   0.111028105581308   1.0000000
N2   N   0.669834958704884   0.331023923583591   0.111091058607116   1.0000000
N2   N   0.664398342899164   0.473002870954792   0.111306438809399   1.0000000
N2   N   0.658550629701154   0.610156531636210   0.111094226599577   1.0000000
N2   N   0.663245994538449   0.757045372738615   0.111032789769039   1.0000000
N2   N   0.808720730434467   0.902406185015824   0.111008949610291   1.0000000
N2   N   0.810279197097286   0.046089249275878   0.111023402804936   1.0000000
N2   N   0.810855846790004   0.189131160120209   0.110974287558837   1.0000000
N2   N   0.811097871777661   0.332151375682113   0.110993305945553   1.0000000
N2   N   0.808797873000602   0.475128545138061   0.111089470288278   1.0000000
N2   N   0.807058206304012   0.617076413550836   0.111187157006012   1.0000000
N2   N   0.806133409442102   0.758140685941331   0.111081982590931   1.0000000


