data_1
_audit_creation_method   'vasp2cif'
_cell_length_a    17.52789999999977
_cell_length_b    17.52789999999977
_cell_length_c    15.0
_cell_angle_alpha    90.0
_cell_angle_beta    90.0
_cell_angle_gamma    119.99999999999916

_symmetry_space_group_name_H-M    'P 1'
loop_
_atom_site_label
_atom_site_type_symbol
_atom_site_fract_x
_atom_site_fract_y
_atom_site_fract_z
_atom_site_occupancy
Al2   Al   0.561785833439538   0.438215568477404   0.111472057598649   1.0000000
B2   B   0.906326095381140   0.955537627636493   0.110942286440132   1.0000000
B2   B   0.903476028808999   0.096525992386985   0.111033616707000   1.0000000
B2   B   0.903108202915073   0.238831894093890   0.111022372752033   1.0000000
B2   B   0.904779711077080   0.381858506538060   0.110867334812409   1.0000000
B2   B   0.907320951824996   0.525447526102053   0.110851602617423   1.0000000
B2   B   0.909673380520842   0.670494042409737   0.110971259073293   1.0000000
B2   B   0.910388322796817   0.815016592754088   0.110868398010939   1.0000000
B2   B   0.047705131212902   0.952296889983064   0.110877132735681   1.0000000
B2   B   0.044464393559496   0.093675925814786   0.110942286440132   1.0000000
B2   B   0.043659075627607   0.237168568728590   0.110930795236811   1.0000000
B2   B   0.044958009149838   0.381088845648708   0.110919665957016   1.0000000
B2   B   0.047495952738259   0.524557002678292   0.110892186644544   1.0000000
B2   B   0.049404729273983   0.667542738315730   0.110924027466441   1.0000000
B2   B   0.049692812522537   0.810455424569920   0.110938849582654   1.0000000
B2   B   0.189546596626068   0.950309208673495   0.110938849582654   1.0000000
B2   B   0.184985428441913   0.089613698399208   0.110868398010939   1.0000000
B2   B   0.181843748603139   0.231924383067213   0.110850129036409   1.0000000
B2   B   0.183760379112765   0.378677772223253   0.110866754888072   1.0000000
B2   B   0.187668083518822   0.523665076871233   0.110958734936674   1.0000000
B2   B   0.191084013195529   0.666688785893313   0.111074634034524   1.0000000
B2   B   0.191047072675701   0.808954948520328   0.111044741882866   1.0000000
B2   B   0.332459282881224   0.950597291921990   0.110924027466441   1.0000000
B2   B   0.329507978787333   0.090328640675120   0.110971259073293   1.0000000
B2   B   0.320609813021516   0.225677545865566   0.111242705840370   1.0000000
B2   B   0.317100093914251   0.370746817607426   0.111253563885996   1.0000000
B2   B   0.326745605913946   0.521227906427013   0.111297892925665   1.0000000
B2   B   0.333768168633132   0.666233852563798   0.111136229724048   1.0000000
B2   B   0.333313235303652   0.808918008000456   0.111074634034524   1.0000000
B2   B   0.475445018518710   0.952506068457794   0.110892186644544   1.0000000
B2   B   0.474554495094939   0.092681069371027   0.110851602617423   1.0000000
B2   B   0.470326458396047   0.228991818819832   0.111529598003609   1.0000000
B2   B   0.448754259777207   0.355305388361586   0.110069862787676   1.0000000
B2   B   0.478774114769985   0.673256415283096   0.111297892925665   1.0000000
B2   B   0.476336944325725   0.812333937677192   0.110958734936674   1.0000000
B2   B   0.618913175547299   0.955044012046185   0.110919665957016   1.0000000
B2   B   0.618143514657937   0.095222310118873   0.110867334812409   1.0000000
B2   B   0.618730346149097   0.235952595513571   0.110952977796428   1.0000000
B2   B   0.623707319321968   0.376294701873982   0.111292438759476   1.0000000
B2   B   0.644696632834356   0.551247761419809   0.110069862787676   1.0000000
B2   B   0.629255203588518   0.682901927282821   0.111253563885996   1.0000000
B2   B   0.621324248972814   0.816241642083278   0.110866754888072   1.0000000
B2   B   0.762833452467318   0.956342945568356   0.110930795236811   1.0000000
B2   B   0.761170127102131   0.096893818280928   0.111022372752033   1.0000000
B2   B   0.761427285773060   0.238574735422926   0.110930694510892   1.0000000
B2   B   0.764049425682412   0.381271675046900   0.110952977796428   1.0000000
B2   B   0.771010202376204   0.529675562800867   0.111529598003609   1.0000000
B2   B   0.774324475330454   0.679392208175446   0.111242705840370   1.0000000
B2   B   0.768077638128712   0.818158272592890   0.110850129036409   1.0000000
N2   N   0.954439821591258   0.908218818376339   0.110852052798130   1.0000000
N2   N   0.951007629116421   0.048993772801585   0.111011341482839   1.0000000
N2   N   0.949724274799537   0.190835534942751   0.111014521250338   1.0000000
N2   N   0.950719996279330   0.333647431970356   0.110942752224265   1.0000000
N2   N   0.953071765043194   0.476994666147513   0.110778644290356   1.0000000
N2   N   0.954842033839240   0.620756345849915   0.110831295662078   1.0000000
N2   N   0.955718989839732   0.765014833410867   0.110846786728281   1.0000000
N2   N   0.095367506674753   0.904633895243187   0.110925290732500   1.0000000
N2   N   0.091782583541635   0.045561580326662   0.110852052798130   1.0000000
N2   N   0.088933974465415   0.187389919067657   0.110862088913798   1.0000000
N2   N   0.090073555884077   0.331967739494216   0.110875554475009   1.0000000
N2   N   0.093209577801186   0.476151732798884   0.110921130648349   1.0000000
N2   N   0.096089731565701   0.619518819766006   0.110953066298610   1.0000000
N2   N   0.096472739645600   0.762289877846371   0.110988462095086   1.0000000
N2   N   0.237711524071615   0.903528662272399   0.110988462095086   1.0000000
N2   N   0.234986568507118   0.044282412078300   0.110846786728281   1.0000000
N2   N   0.228118601768167   0.182453095068698   0.110950580758940   1.0000000
N2   N   0.225174472945589   0.325615281361733   0.110855857410136   1.0000000
N2   N   0.232096562138498   0.474421608527365   0.110856691949180   1.0000000
N2   N   0.238111697449794   0.618906503431014   0.111067865711493   1.0000000
N2   N   0.238452112973679   0.761549288944277   0.111088697559450   1.0000000
N2   N   0.380482582151992   0.903911670352284   0.110953066298610   1.0000000
N2   N   0.379245056068017   0.045159368078784   0.110831295662078   1.0000000
N2   N   0.374807050176940   0.184263168607804   0.111257868670869   1.0000000
N2   N   0.360141679369887   0.317942030560957   0.111112907789530   1.0000000
N2   N   0.360161845620461   0.463156200636113   0.111846830246626   1.0000000
N2   N   0.381533423793558   0.618467978124504   0.111225919386819   1.0000000
N2   N   0.381094898486994   0.761889704468212   0.111067865711493   1.0000000
N2   N   0.523849669118090   0.906791824116817   0.110921130648342   1.0000000
N2   N   0.523006735769463   0.046929636874810   0.110778644290356   1.0000000
N2   N   0.522255010238744   0.186907771053940   0.111029539459060   1.0000000
N2   N   0.515066404810816   0.321889068831694   0.111921139924054   1.0000000
N2   N   0.536845201280890   0.639839556297515   0.111846830246626   1.0000000
N2   N   0.525579793389683   0.767904839779487   0.110856691949173   1.0000000
N2   N   0.668033662422767   0.909927846033953   0.110875554475009   1.0000000
N2   N   0.666353969946679   0.049281405638746   0.110942752224265   1.0000000
N2   N   0.666318801669924   0.189711639502942   0.110853453050771   1.0000000
N2   N   0.669792570371146   0.330208831545850   0.110986709014547   1.0000000
N2   N   0.678112333085315   0.484934997106134   0.111921139924054   1.0000000
N2   N   0.682059371356073   0.639859722548039   0.111112907789530   1.0000000
N2   N   0.674386120555218   0.774826928972354   0.110855857410136   1.0000000
N2   N   0.812611482850405   0.911067427452605   0.110862088913798   1.0000000
N2   N   0.809165866975261   0.050277127118442   0.111014521250338   1.0000000
N2   N   0.808583401259910   0.191418000658105   0.111017728842508   1.0000000
N2   N   0.810289762415047   0.333682600246989   0.110853453050771   1.0000000
N2   N   0.813093630864048   0.477746391678309   0.111029539459060   1.0000000
N2   N   0.815738233310151   0.625194351741069   0.111257868670869   1.0000000
N2   N   0.817548306849339   0.771882800149815   0.110950580758940   1.0000000
Sb2   Sb   0.488288811851361   0.511713209345661   0.112227954894425   1.0000000


