data_1
_audit_creation_method   'vasp2cif'
_cell_length_a    17.52789999999977
_cell_length_b    17.52789999999977
_cell_length_c    15.0
_cell_angle_alpha    90.0
_cell_angle_beta    90.0
_cell_angle_gamma    119.99999999999916

_symmetry_space_group_name_H-M    'P 1'
loop_
_atom_site_label
_atom_site_type_symbol
_atom_site_fract_x
_atom_site_fract_y
_atom_site_fract_z
_atom_site_occupancy
As2   As   0.476133810354395   0.523897655944749   0.209127898847772   1.0000000
B2   B   0.904944055756089   0.952485063640824   0.103924373071352   1.0000000
B2   B   0.904771746384198   0.095228638934342   0.100895488580552   1.0000000
B2   B   0.904745022627750   0.238096711546598   0.099835614758242   1.0000000
B2   B   0.904785181735056   0.380988474264419   0.100928979832585   1.0000000
B2   B   0.904948707398232   0.523884996841361   0.104013042365157   1.0000000
B2   B   0.904841785645252   0.666743771624765   0.108111630484901   1.0000000
B2   B   0.904817011214844   0.809510993178094   0.108041596716466   1.0000000
B2   B   0.047644653993141   0.952354305003011   0.105501555355089   1.0000000
B2   B   0.047515217213511   0.095055624429837   0.103944342814400   1.0000000
B2   B   0.047478038133041   0.237959311669544   0.103022574750946   1.0000000
B2   B   0.047474291190293   0.380948010595577   0.102999390984680   1.0000000
B2   B   0.047521167907407   0.523900139439723   0.103954136458951   1.0000000
B2   B   0.047671358546108   0.666750537022794   0.105492001879752   1.0000000
B2   B   0.047666639962666   0.809565168186876   0.106571406984481   1.0000000
B2   B   0.190437624457964   0.952333456365930   0.106609462873251   1.0000000
B2   B   0.190490113959755   0.095177778011336   0.108094104121532   1.0000000
B2   B   0.189908668549739   0.237462509054109   0.109648462905864   1.0000000
B2   B   0.189905248842204   0.380655642579740   0.110833012232926   1.0000000
B2   B   0.189900499542337   0.523872553541419   0.109727019291728   1.0000000
B2   B   0.190488664169270   0.666746222306375   0.108160190336940   1.0000000
B2   B   0.190445866635461   0.809557333117741   0.106593255634441   1.0000000
B2   B   0.333254827026655   0.952330883902695   0.105556707995886   1.0000000
B2   B   0.333260819561555   0.095157851891040   0.108196579661013   1.0000000
B2   B   0.333273420461028   0.237967133429102   0.117946808898873   1.0000000
B2   B   0.330697334218150   0.378929410026300   0.130252398245425   1.0000000
B2   B   0.330673168651480   0.523175177578484   0.130285250670366   1.0000000
B2   B   0.333269370896987   0.666731457375254   0.118036106482427   1.0000000
B2   B   0.333257235266494   0.809513402603468   0.108178953557480   1.0000000
B2   B   0.476104941457919   0.952482252370987   0.103998195358960   1.0000000
B2   B   0.476119993108299   0.095050963658138   0.104083914126007   1.0000000
B2   B   0.476134919129209   0.237465582162039   0.109909995821149   1.0000000
B2   B   0.476830637025966   0.378946034597938   0.130458437536447   1.0000000
B2   B   0.476826441928705   0.669332227833747   0.130280146628582   1.0000000
B2   B   0.476127430304886   0.810100208859685   0.109735360101048   1.0000000
B2   B   0.619053590873634   0.952526753458453   0.103005799236132   1.0000000
B2   B   0.619017376920921   0.095216989067670   0.100967985261112   1.0000000
B2   B   0.619080174208353   0.237949375946678   0.103266983039844   1.0000000
B2   B   0.619344950885160   0.380652796157528   0.111138492765708   1.0000000
B2   B   0.621052334010795   0.523171117352485   0.130410984255608   1.0000000
B2   B   0.621075591068560   0.669307560174967   0.130208777298600   1.0000000
B2   B   0.619344572827092   0.810096045127372   0.110811474749619   1.0000000
B2   B   0.762039932914795   0.952520677447994   0.103004702826652   1.0000000
B2   B   0.761905824791657   0.095256312649983   0.099836757842661   1.0000000
B2   B   0.761924779066639   0.238078050351999   0.099927413298368   1.0000000
B2   B   0.762051072280388   0.380923397758773   0.103232659878086   1.0000000
B2   B   0.762529715525310   0.523865928135598   0.109830302302653   1.0000000
B2   B   0.762029279389632   0.666725923548584   0.117864958421947   1.0000000
B2   B   0.762536009966870   0.810091694193750   0.109595109383892   1.0000000
N2   N   0.952421651408159   0.904747837500866   0.105389439966408   1.0000000
N2   N   0.952388432803596   0.047612302843474   0.102350514796688   1.0000000
N2   N   0.952321707322027   0.190438939555653   0.100531140060706   1.0000000
N2   N   0.952325734917879   0.333324645747243   0.100510993236564   1.0000000
N2   N   0.952399562284728   0.476217431405532   0.102371043621921   1.0000000
N2   N   0.952441633203664   0.619113070050682   0.105433611849283   1.0000000
N2   N   0.952470003742500   0.761955317018215   0.107711894480721   1.0000000
N2   N   0.095246905919055   0.904753820969139   0.106269387420826   1.0000000
N2   N   0.095253946034218   0.047577578344228   0.105413695647267   1.0000000
N2   N   0.094944495166127   0.190174002790809   0.104599283721248   1.0000000
N2   N   0.094946220015669   0.333187642493010   0.104631384228908   1.0000000
N2   N   0.094942734750908   0.476204238389838   0.104604044046076   1.0000000
N2   N   0.095264400712199   0.619123272143885   0.105427997322925   1.0000000
N2   N   0.095256684198898   0.761955390986443   0.106242589703172   1.0000000
N2   N   0.238048519397599   0.904745762053248   0.106283166497773   1.0000000
N2   N   0.238048195383984   0.047528427997485   0.107778826755326   1.0000000
N2   N   0.238050575335974   0.190345245624028   0.111834951722703   1.0000000
N2   N   0.236970159873345   0.332330252743686   0.113927187221153   1.0000000
N2   N   0.236952559889283   0.476052460892092   0.113977596429490   1.0000000
N2   N   0.238042614882476   0.619131236713754   0.111974608476494   1.0000000
N2   N   0.238048570841521   0.761955309747414   0.107787423980487   1.0000000
N2   N   0.380882581754800   0.904738845270048   0.105477287188184   1.0000000
N2   N   0.380891249492340   0.047558914686961   0.105514121093722   1.0000000
N2   N   0.380874015718971   0.190333156100890   0.111997988008184   1.0000000
N2   N   0.380663063057248   0.332738553095360   0.130464620005025   1.0000000
N2   N   0.372058685695772   0.471744738779075   0.146696566967146   1.0000000
N2   N   0.380659503394263   0.619342616496739   0.130477652451838   1.0000000
N2   N   0.380869654980606   0.761958107300279   0.111985881047564   1.0000000
N2   N   0.523797323221305   0.905058672022104   0.104623702475751   1.0000000
N2   N   0.523787371127163   0.047601291053833   0.102425553836299   1.0000000
N2   N   0.523814374866405   0.190170557884359   0.104842159716190   1.0000000
N2   N   0.523956903829890   0.332332742653884   0.114246109412577   1.0000000
N2   N   0.528236769346274   0.471769562925623   0.146903918521615   1.0000000
N2   N   0.528264483501109   0.627953110712038   0.146683772277655   1.0000000
N2   N   0.523949255596938   0.763051587245574   0.113972509889662   1.0000000
N2   N   0.666812074368563   0.905053281557487   0.104616530087131   1.0000000
N2   N   0.666679176867703   0.047675114701700   0.100526130351105   1.0000000
N2   N   0.666695487398853   0.190422088709397   0.100665634592361   1.0000000
N2   N   0.666828135757119   0.333172318334764   0.104950753880968   1.0000000
N2   N   0.667661588046412   0.476042732146954   0.114187305504491   1.0000000
N2   N   0.667259313814730   0.619337318719998   0.130395949000353   1.0000000
N2   N   0.667670093864586   0.763032952576322   0.113881077311274   1.0000000
N2   N   0.809826265406669   0.905056473170899   0.104565982397881   1.0000000
N2   N   0.809561548179936   0.047677973169835   0.100522014800824   1.0000000
N2   N   0.809528019688250   0.190473687949885   0.099150477359251   1.0000000
N2   N   0.809579285435916   0.333307650354098   0.100635673606640   1.0000000
N2   N   0.809827203822779   0.476189220645187   0.104776768793184   1.0000000
N2   N   0.809663769129131   0.619127357362832   0.111902011693445   1.0000000
N2   N   0.809650242857599   0.761948949698297   0.111770269621012   1.0000000


