data_1
_audit_creation_method   'vasp2cif'
_cell_length_a    17.52789999999977
_cell_length_b    17.52789999999977
_cell_length_c    15.0
_cell_angle_alpha    90.0
_cell_angle_beta    90.0
_cell_angle_gamma    119.99999999999916

_symmetry_space_group_name_H-M    'P 1'
loop_
_atom_site_label
_atom_site_type_symbol
_atom_site_fract_x
_atom_site_fract_y
_atom_site_fract_z
_atom_site_occupancy
B2   B   0.904854522625312   0.952413239098177   0.111021004482556   1.0000000
B2   B   0.904773136861250   0.095228884334746   0.111035806808898   1.0000000
B2   B   0.904773136861250   0.238115558852495   0.111035806808898   1.0000000
B2   B   0.904854522625312   0.381014301409137   0.111021004482556   1.0000000
B2   B   0.904986786149376   0.523926376684121   0.111032817725533   1.0000000
B2   B   0.905179086923030   0.666876052403013   0.111042599484905   1.0000000
B2   B   0.904986786149376   0.809633427348259   0.111032817725533   1.0000000
B2   B   0.047657970721242   0.952344050474762   0.111022682789117   1.0000000
B2   B   0.047588782097827   0.095147498570684   0.111021004482556   1.0000000
B2   B   0.047572224582856   0.238072621232429   0.111025728132496   1.0000000
B2   B   0.047588782097827   0.381014301409137   0.111021004482556   1.0000000
B2   B   0.047657970721242   0.523888649685479   0.111022682789117   1.0000000
B2   B   0.047772800420301   0.666760600481597   0.111028751460638   1.0000000
B2   B   0.047772800420301   0.809586929377703   0.111028751460638   1.0000000
B2   B   0.190415091818300   0.952229220775702   0.111028751460638   1.0000000
B2   B   0.190368593847744   0.095015235046620   0.111032817725533   1.0000000
B2   B   0.190252383958040   0.237859624662640   0.111018092767618   1.0000000
B2   B   0.190252383958040   0.380965777177401   0.111018092767618   1.0000000
B2   B   0.190368593847744   0.523926376684121   0.111032817725533   1.0000000
B2   B   0.190415091818300   0.666760600481597   0.111028751460638   1.0000000
B2   B   0.190476437651000   0.809525583545003   0.111016760070928   1.0000000
B2   B   0.333241420715401   0.952229220775702   0.111028751460638   1.0000000
B2   B   0.333125968793985   0.094822934272967   0.111042599484905   1.0000000
B2   B   0.333011325004147   0.237418978148081   0.111035356726525   1.0000000
B2   B   0.332606145264227   0.380589581572613   0.111026211140359   1.0000000
B2   B   0.333011325004147   0.524165364738068   0.111035356726525   1.0000000
B2   B   0.333125968793985   0.666876052403013   0.111042599484905   1.0000000
B2   B   0.333241420715401   0.809586929377703   0.111028751460638   1.0000000
B2   B   0.476113371511519   0.952344050474762   0.111022682789117   1.0000000
B2   B   0.476075644512877   0.095015235046620   0.111032817725533   1.0000000
B2   B   0.475836656458930   0.237418978148081   0.111035356726525   1.0000000
B2   B   0.474650343601013   0.377871683887023   0.111028737503565   1.0000000
B2   B   0.474650343601013   0.525351677595985   0.111028737503565   1.0000000
B2   B   0.475836656458930   0.666990696192851   0.111035356726525   1.0000000
B2   B   0.476075644512877   0.809633427348259   0.111032817725533   1.0000000
B2   B   0.618987719786866   0.952413239098177   0.111021004482556   1.0000000
B2   B   0.618987719786866   0.095147498570684   0.111021004482556   1.0000000
B2   B   0.619036244018602   0.237859624662640   0.111018092767618   1.0000000
B2   B   0.619412439623390   0.380589581572613   0.111026211140359   1.0000000
B2   B   0.622130337308980   0.525351677595985   0.111028737503565   1.0000000
B2   B   0.619412439623390   0.667395875932772   0.111026211140359   1.0000000
B2   B   0.619036244018602   0.809749637237964   0.111018092767618   1.0000000
B2   B   0.761929399963575   0.952429796613148   0.111025728132496   1.0000000
B2   B   0.761886462343508   0.095228884334746   0.111035806808898   1.0000000
B2   B   0.761929399963575   0.238072621232429   0.111025728132496   1.0000000
B2   B   0.762142396533364   0.380965777177401   0.111018092767618   1.0000000
B2   B   0.762583043047922   0.524165364738068   0.111035356726525   1.0000000
B2   B   0.762583043047922   0.666990696192851   0.111035356726525   1.0000000
B2   B   0.762142396533364   0.809749637237964   0.111018092767618   1.0000000
N2   N   0.952300255940274   0.904623785127355   0.111008688684617   1.0000000
N2   N   0.952422185468161   0.047579216449844   0.111010490187054   1.0000000
N2   N   0.952468383763527   0.190518989258263   0.111014211048654   1.0000000
N2   N   0.952422185468161   0.333412563771317   0.111010490187054   1.0000000
N2   N   0.952300255940274   0.476247777121915   0.111008688684617   1.0000000
N2   N   0.952250701130587   0.619022495157339   0.111015829595907   1.0000000
N2   N   0.952250701130587   0.761799512283246   0.111015829595907   1.0000000
N2   N   0.095238950323601   0.904762451594398   0.111010337377445   1.0000000
N2   N   0.095377616790643   0.047701145977732   0.111008688684617   1.0000000
N2   N   0.095486303997094   0.190596286828189   0.111008155586443   1.0000000
N2   N   0.095486303997094   0.333461323477908   0.111008155586443   1.0000000
N2   N   0.095377616790643   0.476247777121915   0.111008688684617   1.0000000
N2   N   0.095238950323601   0.619049516595211   0.111010337377445   1.0000000
N2   N   0.095209177523201   0.761891097694604   0.111007942932847   1.0000000
N2   N   0.238110304223401   0.904792224394798   0.111007942932847   1.0000000
N2   N   0.238201889634760   0.047750700787418   0.111015829595907   1.0000000
N2   N   0.238483935384462   0.190797586797756   0.111013210078333   1.0000000
N2   N   0.238513179216400   0.333542242762694   0.111005997215257   1.0000000
N2   N   0.238483935384462   0.476257654895701   0.111013210078333   1.0000000
N2   N   0.238201889634760   0.619022495157339   0.111015829595907   1.0000000
N2   N   0.238110304223401   0.761891097694604   0.111007942932847   1.0000000
N2   N   0.380951885322788   0.904762451594398   0.111010337377445   1.0000000
N2   N   0.380978906760660   0.047750700787418   0.111015829595907   1.0000000
N2   N   0.381096523479915   0.190762951351822   0.111017079090984   1.0000000
N2   N   0.381702787695941   0.334186625173328   0.111010072485592   1.0000000
N2   N   0.381702787695941   0.476087468831608   0.111010072485592   1.0000000
N2   N   0.381096523479915   0.618904878438083   0.111017079090984   1.0000000
N2   N   0.380978906760660   0.761799512283246   0.111015829595907   1.0000000
N2   N   0.523753624795082   0.904623785127355   0.111008688684617   1.0000000
N2   N   0.523753624795082   0.047701145977732   0.111008688684617   1.0000000
N2   N   0.523743747021295   0.190797586797756   0.111013210078333   1.0000000
N2   N   0.523913933085389   0.334186625173328   0.111010072485592   1.0000000
N2   N   0.523913933085389   0.618298614222058   0.111010072485592   1.0000000
N2   N   0.523743747021295   0.761517466533544   0.111013210078333   1.0000000
N2   N   0.666540078439089   0.904515097920904   0.111008155586443   1.0000000
N2   N   0.666588838145679   0.047579216449844   0.111010490187054   1.0000000
N2   N   0.666540078439089   0.190596286828189   0.111008155586443   1.0000000
N2   N   0.666459159154302   0.333542242762694   0.111005997215257   1.0000000
N2   N   0.665814776743668   0.476087468831608   0.111010072485592   1.0000000
N2   N   0.665814776743668   0.618298614222058   0.111010072485592   1.0000000
N2   N   0.666459159154302   0.761488222701606   0.111005997215257   1.0000000
N2   N   0.809405115089810   0.904515097920904   0.111008155586443   1.0000000
N2   N   0.809482412659735   0.047533018154479   0.111014211048654   1.0000000
N2   N   0.809482412659735   0.190518989258263   0.111014211048654   1.0000000
N2   N   0.809405115089810   0.333461323477908   0.111008155586443   1.0000000
N2   N   0.809203815120242   0.476257654895701   0.111013210078333   1.0000000
N2   N   0.809238450566176   0.618904878438083   0.111017079090984   1.0000000
N2   N   0.809203815120242   0.761517466533544   0.111013210078333   1.0000000
O2   O   0.523810499174999   0.476190902741997   0.111047891231825   1.0000000


