data_1
_audit_creation_method   'vasp2cif'
_cell_length_a    17.52789999999977
_cell_length_b    17.52789999999977
_cell_length_c    15.0
_cell_angle_alpha    90.0
_cell_angle_beta    90.0
_cell_angle_gamma    119.99999999999916

_symmetry_space_group_name_H-M    'P 1'
loop_
_atom_site_label
_atom_site_type_symbol
_atom_site_fract_x
_atom_site_fract_y
_atom_site_fract_z
_atom_site_occupancy
B2   B   0.903987443405883   0.954405628009414   0.111103682167850   1.0000000
B2   B   0.903884176490254   0.097157077769288   0.111102207891276   1.0000000
B2   B   0.903820029448542   0.239865326440485   0.111162319844807   1.0000000
B2   B   0.903681788563995   0.382566385700215   0.111163506448639   1.0000000
B2   B   0.903410512966980   0.525246790011348   0.111102801853211   1.0000000
B2   B   0.903376841981620   0.668044448701601   0.111099660506275   1.0000000
B2   B   0.903618351945179   0.811135210398740   0.111152446812801   1.0000000
B2   B   0.046542035627092   0.954037376421921   0.111112056974340   1.0000000
B2   B   0.046675160294906   0.097051277402273   0.111104425442313   1.0000000
B2   B   0.046740403481658   0.239891521227907   0.111118112142372   1.0000000
B2   B   0.046761961038204   0.382540965396394   0.111094444081732   1.0000000
B2   B   0.046630994677114   0.525242283405690   0.111107884364708   1.0000000
B2   B   0.046420608803398   0.668059825995278   0.111100272584926   1.0000000
B2   B   0.046443425581185   0.811022240337843   0.111103596462800   1.0000000
B2   B   0.189390039305660   0.953981041476219   0.111120685856889   1.0000000
B2   B   0.189414495088119   0.096916074614688   0.111159916406308   1.0000000
B2   B   0.189526208371943   0.239844719389258   0.111156656564243   1.0000000
B2   B   0.189950714472286   0.382593904403796   0.111106300561507   1.0000000
B2   B   0.189943349230227   0.525044299917245   0.111089700766468   1.0000000
B2   B   0.189467706181641   0.668038000686481   0.111158404582157   1.0000000
B2   B   0.189368278142068   0.811019238583053   0.111149204408926   1.0000000
B2   B   0.332294769878352   0.954037444188887   0.111136764643186   1.0000000
B2   B   0.332316920728173   0.096911617228486   0.111135953093448   1.0000000
B2   B   0.332302795736885   0.239770648737104   0.111164510691585   1.0000000
B2   B   0.333554977766714   0.383512047676490   0.111141443338913   1.0000000
B2   B   0.334494432337498   0.524478372143287   0.111119377662112   1.0000000
B2   B   0.332351690063840   0.667994111132210   0.111147761112623   1.0000000
B2   B   0.332317810862539   0.811135509414551   0.111166629126528   1.0000000
B2   B   0.475214737055136   0.954405963953561   0.111147301185351   1.0000000
B2   B   0.475163879294406   0.097036065605766   0.111150075743693   1.0000000
B2   B   0.475127008118047   0.239816198022285   0.111136555687038   1.0000000
B2   B   0.474719248434369   0.383398082749619   0.111091418593526   1.0000000
B2   B   0.473882184083177   0.669024171137069   0.111074132043689   1.0000000
B2   B   0.475191569161401   0.811904565111388   0.111141393692809   1.0000000
B2   B   0.618194148289057   0.954510225942236   0.111110544178656   1.0000000
B2   B   0.618061413913664   0.097147281976126   0.111189031258005   1.0000000
B2   B   0.617939587034961   0.239881223035699   0.111186190601821   1.0000000
B2   B   0.617440371703328   0.382592490911666   0.111115482119098   1.0000000
B2   B   0.614915067896390   0.524538620547247   0.111132881306981   1.0000000
B2   B   0.619870271603560   0.669022610078006   0.111095945343274   1.0000000
B2   B   0.618299408753468   0.811850695797013   0.111127915695459   1.0000000
B2   B   0.761103544061776   0.954521225368002   0.111127393231860   1.0000000
B2   B   0.761007371600543   0.097205697186266   0.111166162514953   1.0000000
B2   B   0.760849976506782   0.239872321101677   0.111217709622128   1.0000000
B2   B   0.760587735529839   0.382554940105026   0.111179654662223   1.0000000
B2   B   0.759942381906149   0.525070176827911   0.111134075908149   1.0000000
B2   B   0.760449493818998   0.668005612783344   0.111182683858212   1.0000000
B2   B   0.761490453875271   0.811906117246539   0.111178685169478   1.0000000
N2   N   0.951392262051196   0.906520017812512   0.111106415344649   1.0000000
N2   N   0.951416921596207   0.049486596572483   0.111060610168957   1.0000000
N2   N   0.951278319991402   0.192195585027377   0.111107828793490   1.0000000
N2   N   0.951275510344170   0.334972700283371   0.111121445993609   1.0000000
N2   N   0.951275106975674   0.477760644353879   0.111104743842629   1.0000000
N2   N   0.951274321826526   0.620557024223796   0.111055869490281   1.0000000
N2   N   0.951350422822442   0.763506009335337   0.111100566079020   1.0000000
N2   N   0.094098198272566   0.906254802344376   0.111088403624241   1.0000000
N2   N   0.093993945645139   0.049058028508389   0.111109683077515   1.0000000
N2   N   0.093858596988496   0.191868630900206   0.111112722689299   1.0000000
N2   N   0.093960623604963   0.334827475642493   0.111079288559351   1.0000000
N2   N   0.094155102762678   0.477726343160490   0.111065094919641   1.0000000
N2   N   0.094070701324235   0.620560818619612   0.111110669080000   1.0000000
N2   N   0.094093969061633   0.763399372810356   0.111102912373964   1.0000000
N2   N   0.236954442897126   0.906253642240788   0.111122946708270   1.0000000
N2   N   0.236869999355959   0.048923696172387   0.111122557037918   1.0000000
N2   N   0.236541277287249   0.191437898412382   0.111159549275199   1.0000000
N2   N   0.236320357081994   0.334133082305997   0.111130699592245   1.0000000
N2   N   0.237012316876950   0.477601681013059   0.111083515155547   1.0000000
N2   N   0.236858812197388   0.620633720420718   0.111123683029321   1.0000000
N2   N   0.236952371704778   0.763510228201298   0.111151153227008   1.0000000
N2   N   0.379922071336520   0.906521838326235   0.111132554618840   1.0000000
N2   N   0.379865790266464   0.049050400986766   0.111112848479161   1.0000000
N2   N   0.379720143450835   0.191429657745487   0.111125550920179   1.0000000
N2   N   0.379086694404532   0.333356403776846   0.111117652216449   1.0000000
N2   N   0.377142479139183   0.475214101181092   0.111104080798570   1.0000000
N2   N   0.379456198381070   0.620900788374179   0.111109297284931   1.0000000
N2   N   0.379871779372408   0.763869129977439   0.111144059637138   1.0000000
N2   N   0.522995169113626   0.907245393384667   0.111106559520933   1.0000000
N2   N   0.522864154943273   0.049485562856711   0.111141282710819   1.0000000
N2   N   0.522811666431891   0.191850792018778   0.111142006247237   1.0000000
N2   N   0.522623521293754   0.334106148184283   0.111085363009334   1.0000000
N2   N   0.522997923414545   0.475100325001582   0.111068200514861   1.0000000
N2   N   0.528584307593843   0.632435345558984   0.110923851842044   1.0000000
N2   N   0.523187452874823   0.765456576978042   0.111105623096932   1.0000000
N2   N   0.666058427163282   0.907337956127357   0.111096956793280   1.0000000
N2   N   0.665837953780959   0.049724354827742   0.111135705258477   1.0000000
N2   N   0.665713568409370   0.192195211594566   0.111192455671636   1.0000000
N2   N   0.665665014074734   0.334828981164331   0.111145242142553   1.0000000
N2   N   0.665427517362323   0.477610441874458   0.111111807103821   1.0000000
N2   N   0.666232618691803   0.620919267304096   0.111144616350417   1.0000000
N2   N   0.667034734078427   0.765458007086980   0.111126044990612   1.0000000
N2   N   0.809035200329470   0.907248789726619   0.111119568011061   1.0000000
N2   N   0.808682970215977   0.049724516787134   0.111109672503117   1.0000000
N2   N   0.808550955239063   0.192307042639350   0.111178948199553   1.0000000
N2   N   0.808491898315220   0.334977595118612   0.111183686651221   1.0000000
N2   N   0.808377207854524   0.477734945900423   0.111116922874748   1.0000000
N2   N   0.808574730314323   0.620642444615255   0.111122946073420   1.0000000
N2   N   0.808788583297699   0.763872440023075   0.111181820333159   1.0000000


