data_1
_audit_creation_method   'vasp2cif'
_cell_length_a    14.93631414619966
_cell_length_b    14.936314146199727
_cell_length_c    13.341276283792837
_cell_angle_alpha    90.0
_cell_angle_beta    90.0
_cell_angle_gamma    119.99999999999984

_symmetry_space_group_name_H-M    'P 1'
loop_
_atom_site_label
_atom_site_type_symbol
_atom_site_fract_x
_atom_site_fract_y
_atom_site_fract_z
_atom_site_occupancy
P2   P   0.555555555555557   0.444444444444443   0.375000000000000   1.0000000
N2   N   0.111094813548677   0.055551939115289   0.124973944044641   1.0000000
N2   N   0.611160388210411   0.555654109754128   0.123646287844945   1.0000000
N2   N   0.444451250489266   0.055565109198410   0.125073655971369   1.0000000
N2   N   0.944434890801572   0.555548749510779   0.125073655971369   1.0000000
N2   N   0.777784063923221   0.055558698628281   0.124907434715315   1.0000000
N2   N   0.111102575518801   0.722217954426032   0.624987530262497   1.0000000
N2   N   0.444451250489266   0.722219474624174   0.624926344028650   1.0000000
N2   N   0.277743846647182   0.222208319066018   0.625126587182521   1.0000000
N2   N   0.777791680933947   0.722256153352841   0.625126587182521   1.0000000
N2   N   0.611131139085519   0.222208319066018   0.625126587182521   1.0000000
N2   N   0.944441301371698   0.222215936076773   0.625092565284715   1.0000000
N2   N   0.277782045573922   0.722217954426032   0.125012469737525   1.0000000
N2   N   0.111083802352447   0.222208567842894   0.124925447334625   1.0000000
N2   N   0.444451517349135   0.222236368031589   0.124929279264164   1.0000000
N2   N   0.611131139085519   0.722256153352841   0.124873412817450   1.0000000
N2   N   0.944434890801572   0.722219474624174   0.125073655971369   1.0000000
N2   N   0.777791432157101   0.222208567842894   0.124925447334625   1.0000000
N2   N   0.111106995450867   0.888893004549076   0.624982398226108   1.0000000
N2   N   0.444452675764938   0.888893004549076   0.624982398226108   1.0000000
N2   N   0.277743846647182   0.388868860914493   0.625126587182521   1.0000000
N2   N   0.611160388210411   0.388839611789600   0.626353712154995   1.0000000
N2   N   0.777791432157101   0.888916197647599   0.625074552665387   1.0000000
N2   N   0.944448060884752   0.388876207766734   0.625026055955347   1.0000000
N2   N   0.111094813548677   0.388876207766734   0.124973944044641   1.0000000
N2   N   0.277782045573922   0.888897424481173   0.125012469737525   1.0000000
N2   N   0.611123792233266   0.888905186451301   0.124973944044641   1.0000000
N2   N   0.444345890245872   0.388839611789600   0.123646287844945   1.0000000
N2   N   0.944448060884752   0.888905186451301   0.124973944044641   1.0000000
N2   N   0.777791680933947   0.388868860914493   0.124873412817450   1.0000000
N2   N   0.277780525375803   0.555548749510779   0.624926344028650   1.0000000
N2   N   0.111094813548677   0.055551939115289   0.625026055955347   1.0000000
N2   N   0.611160388210411   0.555654109754128   0.626353712154995   1.0000000
N2   N   0.444451250489266   0.055565109198410   0.624926344028650   1.0000000
N2   N   0.944434890801572   0.555548749510779   0.624926344028650   1.0000000
N2   N   0.111106995450867   0.555547324235062   0.125017601773875   1.0000000
N2   N   0.777784063923221   0.055558698628281   0.625092565284715   1.0000000
N2   N   0.277780525375803   0.055565109198410   0.125073655971369   1.0000000
N2   N   0.444451517349135   0.555548482650888   0.124929279264164   1.0000000
N2   N   0.777763631968393   0.555548482650888   0.124929279264164   1.0000000
N2   N   0.611123792233266   0.055551939115289   0.124973944044641   1.0000000
N2   N   0.444451517349135   0.555548482650888   0.625070720735818   1.0000000
N2   N   0.944441301371698   0.055558698628281   0.124907434715315   1.0000000
N2   N   0.277782045573922   0.722217954426032   0.624987530262497   1.0000000
N2   N   0.111083802352447   0.222208567842894   0.625074552665387   1.0000000
N2   N   0.444451517349135   0.222236368031589   0.625070720735818   1.0000000
N2   N   0.611131139085519   0.722256153352841   0.625126587182521   1.0000000
N2   N   0.944434890801572   0.722219474624174   0.624926344028650   1.0000000
N2   N   0.777791432157101   0.222208567842894   0.625074552665387   1.0000000
N2   N   0.111102575518801   0.722217954426032   0.125012469737525   1.0000000
N2   N   0.444451250489266   0.722219474624174   0.125073655971369   1.0000000
N2   N   0.277743846647182   0.222208319066018   0.124873412817450   1.0000000
N2   N   0.777791680933947   0.722256153352841   0.124873412817450   1.0000000
N2   N   0.611131139085519   0.222208319066018   0.124873412817450   1.0000000
N2   N   0.944441301371698   0.222215936076773   0.124907434715315   1.0000000
N2   N   0.111094813548677   0.388876207766734   0.625026055955347   1.0000000
N2   N   0.277782045573922   0.888897424481173   0.624987530262497   1.0000000
N2   N   0.611123792233266   0.888905186451301   0.625026055955347   1.0000000
N2   N   0.444345890245872   0.388839611789600   0.626353712154995   1.0000000
N2   N   0.944448060884752   0.888905186451301   0.625026055955347   1.0000000
N2   N   0.111106995450867   0.888893004549076   0.125017601773875   1.0000000
N2   N   0.777791680933947   0.388868860914493   0.625126587182521   1.0000000
N2   N   0.444452675764938   0.888893004549076   0.125017601773875   1.0000000
N2   N   0.277743846647182   0.388868860914493   0.124873412817450   1.0000000
N2   N   0.277780525375803   0.555548749510779   0.125073655971369   1.0000000
N2   N   0.611160388210411   0.388839611789600   0.123646287844945   1.0000000
N2   N   0.777791432157101   0.888916197647599   0.124925447334625   1.0000000
N2   N   0.944448060884752   0.388876207766734   0.124973944044641   1.0000000
N2   N   0.111106995450867   0.555547324235062   0.624982398226108   1.0000000
N2   N   0.277780525375803   0.055565109198410   0.624926344028650   1.0000000
N2   N   0.777763631968393   0.555548482650888   0.625070720735818   1.0000000
N2   N   0.611123792233266   0.055551939115289   0.625026055955347   1.0000000
N2   N   0.944441301371698   0.055558698628281   0.625092565284715   1.0000000
N2   N   0.054662770535886   0.110521733963467   0.375000000000000   1.0000000
N2   N   0.555583319644607   0.618897761812218   0.375000000000000   1.0000000
N2   N   0.387841933512732   0.109017200358807   0.375000000000000   1.0000000
N2   N   0.890982799641193   0.612158066487257   0.375000000000000   1.0000000
N2   N   0.722525630094191   0.110521733963467   0.375000000000000   1.0000000
N2   N   0.055556105163801   0.777776609372421   0.875000000000000   1.0000000
N2   N   0.388887170875282   0.777776609372421   0.875000000000000   1.0000000
N2   N   0.222225582314293   0.277779457823829   0.875000000000000   1.0000000
N2   N   0.722220542176183   0.777774417685678   0.875000000000000   1.0000000
N2   N   0.555550226498654   0.277775059951752   0.875000000000000   1.0000000
N2   N   0.888892427308681   0.277782365411043   0.875000000000000   1.0000000
N2   N   0.222222222222221   0.777777777777779   0.375000000000000   1.0000000
N2   N   0.054662770535886   0.277474369905763   0.375000000000000   1.0000000
N2   N   0.381102238187782   0.270018891165735   0.375000000000000   1.0000000
N2   N   0.555232525783334   0.780826356828026   0.375000000000000   1.0000000
N2   N   0.892260497711333   0.780826356828026   0.375000000000000   1.0000000
N2   N   0.723643201787821   0.276356798212191   0.375000000000000   1.0000000
N2   N   0.055557748743819   0.944442251256154   0.875000000000000   1.0000000
N2   N   0.388887170875282   0.944443894836208   0.875000000000000   1.0000000
N2   N   0.222222396375397   0.444447229364688   0.875000000000000   1.0000000
N2   N   0.555555555555557   0.444444444444443   0.875000000000000   1.0000000
N2   N   0.722217634588958   0.944443395230997   0.875000000000000   1.0000000
N2   N   0.888891499655916   0.444447229364688   0.875000000000000   1.0000000
N2   N   0.055704189731890   0.444741712797106   0.375000000000000   1.0000000
N2   N   0.221899670453597   0.943598374439848   0.375000000000000   1.0000000
N2   N   0.555258287202894   0.944295810268111   0.375000000000000   1.0000000
N2   N   0.381102238187782   0.444416680355404   0.375000000000000   1.0000000
N2   N   0.889478266036530   0.945337229464127   0.375000000000000   1.0000000
N2   N   0.729981108834276   0.444416680355404   0.375000000000000   1.0000000
N2   N   0.222223390627579   0.611112829124683   0.875000000000000   1.0000000
N2   N   0.055556604769023   0.111107572691333   0.875000000000000   1.0000000
N2   N   0.555550226498654   0.611108499880228   0.875000000000000   1.0000000
N2   N   0.388886668297788   0.111106669928884   0.875000000000000   1.0000000
N2   N   0.888893330071082   0.611113331702246   0.875000000000000   1.0000000
N2   N   0.056401625560137   0.611634629347090   0.375000000000000   1.0000000
N2   N   0.722217634588958   0.111107572691333   0.875000000000000   1.0000000
N2   N   0.219173643171968   0.107739502288667   0.375000000000000   1.0000000
N2   N   0.387841933512732   0.612158066487257   0.375000000000000   1.0000000
N2   N   0.729981108834276   0.618897761812218   0.375000000000000   1.0000000
N2   N   0.555232525783334   0.107739502288667   0.375000000000000   1.0000000
N2   N   0.388886668297788   0.611113331702246   0.875000000000000   1.0000000
N2   N   0.888888888888886   0.111111111111114   0.375000000000000   1.0000000
N2   N   0.222222222222221   0.777777777777779   0.875000000000000   1.0000000
N2   N   0.055556604769023   0.277782365411043   0.875000000000000   1.0000000
N2   N   0.388891500119761   0.277775059951752   0.875000000000000   1.0000000
N2   N   0.555552770635358   0.777777603624655   0.875000000000000   1.0000000
N2   N   0.888891499655916   0.777777603624655   0.875000000000000   1.0000000
N2   N   0.722220542176183   0.277779457823829   0.875000000000000   1.0000000
N2   N   0.056401625560137   0.778100329546375   0.375000000000000   1.0000000
N2   N   0.388365370652898   0.778100329546375   0.375000000000000   1.0000000
N2   N   0.219380263091046   0.276356798212191   0.375000000000000   1.0000000
N2   N   0.723643201787821   0.780619736908954   0.375000000000000   1.0000000
N2   N   0.555583319644607   0.270018891165735   0.375000000000000   1.0000000
N2   N   0.889478266036530   0.277474369905763   0.375000000000000   1.0000000
N2   N   0.055557748743819   0.444448830820975   0.875000000000000   1.0000000
N2   N   0.222223390627579   0.944443894836208   0.875000000000000   1.0000000
N2   N   0.555551169179048   0.944442251256154   0.875000000000000   1.0000000
N2   N   0.388891500119761   0.444449773501402   0.875000000000000   1.0000000
N2   N   0.888892427308681   0.944443395230997   0.875000000000000   1.0000000
N2   N   0.055704189731890   0.944295810268111   0.375000000000000   1.0000000
N2   N   0.722224940048260   0.444449773501402   0.875000000000000   1.0000000
N2   N   0.388365370652898   0.943598374439848   0.375000000000000   1.0000000
N2   N   0.219173643171968   0.444767474216631   0.375000000000000   1.0000000
N2   N   0.221899670453597   0.611634629347090   0.375000000000000   1.0000000
N2   N   0.722525630094191   0.945337229464127   0.375000000000000   1.0000000
N2   N   0.892260497711333   0.444767474216631   0.375000000000000   1.0000000
N2   N   0.055556105163801   0.611112829124683   0.875000000000000   1.0000000
N2   N   0.222222396375397   0.111108500344050   0.875000000000000   1.0000000
N2   N   0.722224940048260   0.611108499880228   0.875000000000000   1.0000000
N2   N   0.555552770635358   0.111108500344050   0.875000000000000   1.0000000
N2   N   0.888888888888886   0.111111111111114   0.875000000000000   1.0000000
B2   B   0.109358155389448   0.054191312334882   0.375000000000000   1.0000000
B2   B   0.621526020556963   0.576385374447232   0.375000000000000   1.0000000
B2   B   0.443981730663206   0.054057576629468   0.375000000000000   1.0000000
B2   B   0.945942423370492   0.556018269336794   0.375000000000000   1.0000000
B2   B   0.778147595791251   0.055740464562288   0.375000000000000   1.0000000
B2   B   0.111084912444987   0.722209122889155   0.875000000000000   1.0000000
B2   B   0.444422153102294   0.722202053830591   0.875000000000000   1.0000000
B2   B   0.277811475449017   0.222259093577032   0.875000000000000   1.0000000
B2   B   0.777740906422973   0.722188524550983   0.875000000000000   1.0000000
B2   B   0.611114284794704   0.222259093577032   0.875000000000000   1.0000000
B2   B   0.944458483898928   0.222250301131208   0.875000000000000   1.0000000
B2   B   0.277562773864964   0.722437226135034   0.375000000000000   1.0000000
B2   B   0.109259553333907   0.221296443333623   0.375000000000000   1.0000000
B2   B   0.443122053882110   0.219577441097579   0.375000000000000   1.0000000
B2   B   0.611988577536522   0.728059775531052   0.375000000000000   1.0000000
B2   B   0.945942423370492   0.723257487367080   0.375000000000000   1.0000000
B2   B   0.778703556666388   0.221296443333623   0.375000000000000   1.0000000
B2   B   0.111112930279382   0.888887069720621   0.875000000000000   1.0000000
B2   B   0.444440806107902   0.888887069720621   0.875000000000000   1.0000000
B2   B   0.277811475449017   0.388885715205307   0.875000000000000   1.0000000
B2   B   0.611107648898025   0.388892351101940   0.875000000000000   1.0000000
B2   B   0.777771725460163   0.888876784253677   0.875000000000000   1.0000000
B2   B   0.944455051229733   0.388886165818245   0.875000000000000   1.0000000
B2   B   0.109358155389448   0.388500176387922   0.375000000000000   1.0000000
B2   B   0.277562773864964   0.888458881063257   0.375000000000000   1.0000000
B2   B   0.611499823612113   0.890641844610524   0.375000000000000   1.0000000
B2   B   0.423614625552768   0.378473979443037   0.375000000000000   1.0000000
B2   B   0.945808687665128   0.890641844610524   0.375000000000000   1.0000000
B2   B   0.782737864661201   0.388011422463443   0.375000000000000   1.0000000
B2   B   0.277797946169433   0.555577846897707   0.875000000000000   1.0000000
B2   B   0.111097781255131   0.055544948770220   0.875000000000000   1.0000000
B2   B   0.611107648898025   0.555548631129448   0.875000000000000   1.0000000
B2   B   0.444422153102294   0.055553432605053   0.875000000000000   1.0000000
B2   B   0.944446567394983   0.555577846897707   0.875000000000000   1.0000000
B2   B   0.111228744366636   0.555790822066572   0.375000000000000   1.0000000
B2   B   0.777749698868809   0.055541516101062   0.875000000000000   1.0000000
B2   B   0.276742512632943   0.054057576629468   0.375000000000000   1.0000000
B2   B   0.443122053882110   0.556877946117878   0.375000000000000   1.0000000
B2   B   0.780422558902444   0.556877946117878   0.375000000000000   1.0000000
B2   B   0.611499823612113   0.054191312334882   0.375000000000000   1.0000000
B2   B   0.444454227757519   0.555545772242526   0.875000000000000   1.0000000
B2   B   0.944259535437729   0.055740464562288   0.375000000000000   1.0000000
B2   B   0.277790877110833   0.722209122889155   0.875000000000000   1.0000000
B2   B   0.111123215746294   0.222228274539814   0.875000000000000   1.0000000
B2   B   0.444454227757519   0.222241788848357   0.875000000000000   1.0000000
B2   B   0.611114284794704   0.722188524550983   0.875000000000000   1.0000000
B2   B   0.944446567394983   0.722202053830591   0.875000000000000   1.0000000
B2   B   0.777771725460163   0.222228274539814   0.875000000000000   1.0000000
B2   B   0.111541118936725   0.722437226135034   0.375000000000000   1.0000000
B2   B   0.443981730663206   0.723257487367080   0.375000000000000   1.0000000
B2   B   0.271940224468937   0.217262135338811   0.375000000000000   1.0000000
B2   B   0.782737864661201   0.728059775531052   0.375000000000000   1.0000000
B2   B   0.611988577536522   0.217262135338811   0.375000000000000   1.0000000
B2   B   0.944259535437729   0.221852404208754   0.375000000000000   1.0000000
B2   B   0.111097781255131   0.388886165818245   0.875000000000000   1.0000000
B2   B   0.277790877110833   0.888915087554995   0.875000000000000   1.0000000
B2   B   0.611113834181789   0.888902218744875   0.875000000000000   1.0000000
B2   B   0.444451368870529   0.388892351101940   0.875000000000000   1.0000000
B2   B   0.944455051229733   0.888902218744875   0.875000000000000   1.0000000
B2   B   0.111228744366636   0.888771255633378   0.375000000000000   1.0000000
B2   B   0.777740906422973   0.388885715205307   0.875000000000000   1.0000000
B2   B   0.444209177933416   0.888771255633378   0.375000000000000   1.0000000
B2   B   0.271940224468937   0.388011422463443   0.375000000000000   1.0000000
B2   B   0.276742512632943   0.556018269336794   0.375000000000000   1.0000000
B2   B   0.621526020556940   0.378473979443037   0.375000000000000   1.0000000
B2   B   0.778703556666388   0.890740446666081   0.375000000000000   1.0000000
B2   B   0.945808687665128   0.388500176387922   0.375000000000000   1.0000000
B2   B   0.111112930279382   0.555559193892109   0.875000000000000   1.0000000
B2   B   0.277797946169433   0.055553432605053   0.875000000000000   1.0000000
B2   B   0.777758211151626   0.555545772242526   0.875000000000000   1.0000000
B2   B   0.611113834181789   0.055544948770220   0.875000000000000   1.0000000
B2   B   0.944458483898928   0.055541516101062   0.875000000000000   1.0000000
B2   B   0.055538469899330   0.111089337222024   0.124977837578037   1.0000000
B2   B   0.555635298716000   0.611077371647889   0.124578734842893   1.0000000
B2   B   0.388915424330436   0.111164181994222   0.125112631942461   1.0000000
B2   B   0.888835818005786   0.611084575669530   0.125112631942461   1.0000000
B2   B   0.722217533989343   0.111089337222024   0.124977837578037   1.0000000
B2   B   0.055512847489046   0.777740960547631   0.624945396917540   1.0000000
B2   B   0.388894779725261   0.777740960547631   0.624945396917540   1.0000000
B2   B   0.222259326716628   0.277796330024985   0.625070315984951   1.0000000
B2   B   0.722203669975038   0.777740673283366   0.625070315984951   1.0000000
B2   B   0.555635298716000   0.277891260401459   0.625421265157119   1.0000000
B2   B   0.888910662777982   0.277782466010645   0.625022162421940   1.0000000
B2   B   0.222222222222221   0.777777777777779   0.125015625490083   1.0000000
B2   B   0.055538469899330   0.277782466010645   0.124977837578037   1.0000000
B2   B   0.388922628352157   0.277891260401459   0.124578734842893   1.0000000
B2   B   0.555578560274221   0.777764231558796   0.125018857341242   1.0000000
B2   B   0.888852337951239   0.777764231558796   0.125018857341242   1.0000000
B2   B   0.722203669975038   0.277796330024985   0.124929684015083   1.0000000
B2   B   0.055533436269018   0.944466563730963   0.624990325901643   1.0000000
B2   B   0.388894779725261   0.944487152510977   0.624945396917540   1.0000000
B2   B   0.222235768441204   0.444421439725755   0.624981142658763   1.0000000
B2   B   0.555555555555557   0.444444444444443   0.625079713872430   1.0000000
B2   B   0.722217533989343   0.944461530100660   0.625022162421940   1.0000000
B2   B   0.888852337951239   0.444421439725755   0.624981142658763   1.0000000
B2   B   0.055533436269018   0.444400205871368   0.125009674098352   1.0000000
B2   B   0.222259039452352   0.944487152510977   0.125054603082454   1.0000000
B2   B   0.555599794128644   0.944466563730963   0.125009674098352   1.0000000
B2   B   0.388922628352157   0.444364701284034   0.124578734842893   1.0000000
B2   B   0.888910662777982   0.944461530100660   0.124977837578037   1.0000000
B2   B   0.722108739598507   0.444364701284034   0.124578734842893   1.0000000
B2   B   0.222259039452352   0.611105220274751   0.624945396917540   1.0000000
B2   B   0.055538469899330   0.111089337222024   0.625022162421940   1.0000000
B2   B   0.555635298716000   0.611077371647889   0.625421265157119   1.0000000
B2   B   0.388915424330436   0.111164181994222   0.624887368057539   1.0000000
B2   B   0.888835818005786   0.611084575669530   0.624887368057539   1.0000000
B2   B   0.055512847489046   0.611105220274751   0.125054603082454   1.0000000
B2   B   0.722217533989343   0.111089337222024   0.625022162421940   1.0000000
B2   B   0.222235768441204   0.111147662048778   0.125018857341242   1.0000000
B2   B   0.388915424330436   0.611084575669530   0.125112631942461   1.0000000
B2   B   0.722108739598507   0.611077371647889   0.124578734842893   1.0000000
B2   B   0.555578560274221   0.111147662048778   0.125018857341242   1.0000000
B2   B   0.388915424330436   0.611084575669530   0.624887368057539   1.0000000
B2   B   0.888888888888886   0.111111111111114   0.124940510048611   1.0000000
B2   B   0.222222222222221   0.777777777777779   0.624984374509912   1.0000000
B2   B   0.055538469899330   0.277782466010645   0.625022162421940   1.0000000
B2   B   0.388922628352157   0.277891260401459   0.625421265157119   1.0000000
B2   B   0.555578560274221   0.777764231558796   0.624981142658763   1.0000000
B2   B   0.888852337951239   0.777764231558796   0.624981142658763   1.0000000
B2   B   0.722203669975038   0.277796330024985   0.625070315984951   1.0000000
B2   B   0.055512847489046   0.777740960547631   0.125054603082454   1.0000000
B2   B   0.388894779725261   0.777740960547631   0.125054603082454   1.0000000
B2   B   0.222259326716628   0.277796330024985   0.124929684015083   1.0000000
B2   B   0.722203669975038   0.777740673283366   0.124929684015083   1.0000000
B2   B   0.555635298716000   0.277891260401459   0.124578734842893   1.0000000
B2   B   0.888910662777982   0.277782466010645   0.124977837578037   1.0000000
B2   B   0.055533436269018   0.444400205871368   0.624990325901643   1.0000000
B2   B   0.222259039452352   0.944487152510977   0.624945396917540   1.0000000
B2   B   0.555599794128644   0.944466563730963   0.624990325901643   1.0000000
B2   B   0.388922628352157   0.444364701284034   0.625421265157119   1.0000000
B2   B   0.888910662777982   0.944461530100660   0.625022162421940   1.0000000
B2   B   0.055533436269018   0.944466563730963   0.125009674098352   1.0000000
B2   B   0.722108739598507   0.444364701284034   0.625421265157119   1.0000000
B2   B   0.388894779725261   0.944487152510977   0.125054603082454   1.0000000
B2   B   0.222235768441204   0.444421439725755   0.125018857341242   1.0000000
B2   B   0.222259039452352   0.611105220274751   0.125054603082454   1.0000000
B2   B   0.555555555555557   0.444444444444443   0.124920286127593   1.0000000
B2   B   0.722217533989343   0.944461530100660   0.124977837578037   1.0000000
B2   B   0.888852337951239   0.444421439725755   0.125018857341242   1.0000000
B2   B   0.055512847489046   0.611105220274751   0.624945396917540   1.0000000
B2   B   0.222235768441204   0.111147662048778   0.624981142658763   1.0000000
B2   B   0.722108739598507   0.611077371647889   0.625421265157119   1.0000000
B2   B   0.555578560274221   0.111147662048778   0.624981142658763   1.0000000
B2   B   0.888888888888886   0.111111111111114   0.625059489951360   1.0000000


