data_1
_audit_creation_method   'vasp2cif'
_cell_length_a    17.52789999999977
_cell_length_b    17.52789999999977
_cell_length_c    15.0
_cell_angle_alpha    90.0
_cell_angle_beta    90.0
_cell_angle_gamma    119.99999999999916

_symmetry_space_group_name_H-M    'P 1'
loop_
_atom_site_label
_atom_site_type_symbol
_atom_site_fract_x
_atom_site_fract_y
_atom_site_fract_z
_atom_site_occupancy
Sb2   Sb   0.402105158721979   0.487173479176035   0.110705778110311   1.0000000
B2   B   0.908315238639822   0.952521623449672   0.110868663033739   1.0000000
B2   B   0.906929254806035   0.094041923819552   0.110890061635804   1.0000000
B2   B   0.906482006100461   0.236379374461070   0.110755932021884   1.0000000
B2   B   0.906036497198826   0.379210008325827   0.110685792662297   1.0000000
B2   B   0.905298559962284   0.522494766691467   0.110906516707061   1.0000000
B2   B   0.909205644293985   0.666218031140197   0.111135747625742   1.0000000
B2   B   0.908874200543556   0.809983281500258   0.110923218018632   1.0000000
B2   B   0.050708759561274   0.952944836288572   0.110806541861715   1.0000000
B2   B   0.049952538587863   0.094484346180476   0.110814119727407   1.0000000
B2   B   0.049210054280908   0.236963591150187   0.110801837027762   1.0000000
B2   B   0.047694374657867   0.379702948718854   0.110714551205311   1.0000000
B2   B   0.045434155963412   0.523404875079351   0.110681530685923   1.0000000
B2   B   0.048277828001432   0.667122092515782   0.110795180465270   1.0000000
B2   B   0.049969284697381   0.810292455506914   0.110843941041090   1.0000000
B2   B   0.192778327125516   0.953173263866560   0.110726723921194   1.0000000
B2   B   0.193655888692187   0.095288937836543   0.110678674012117   1.0000000
B2   B   0.191329695275255   0.235370390337324   0.110562492526272   1.0000000
B2   B   0.190995677888434   0.380943141786123   0.110659207888901   1.0000000
B2   B   0.184094584574698   0.524662489080217   0.110710163496841   1.0000000
B2   B   0.187444623771219   0.668564684074234   0.110744079970870   1.0000000
B2   B   0.191240296295981   0.811111113081924   0.110721798352785   1.0000000
B2   B   0.335226488468880   0.953519486462230   0.110745151354290   1.0000000
B2   B   0.336519200746936   0.093976103935203   0.110736498880740   1.0000000
B2   B   0.338896633787440   0.234053715186914   0.110467667558323   1.0000000
B2   B   0.330737335767905   0.358404659400918   0.110752189369716   1.0000000
B2   B   0.320292828052064   0.533984354285343   0.110726459966220   1.0000000
B2   B   0.326244437554510   0.673733309817558   0.110699122826465   1.0000000
B2   B   0.333262593826293   0.813296904555970   0.110805610303451   1.0000000
B2   B   0.478192360041908   0.953512944721816   0.110799833076143   1.0000000
B2   B   0.479425131062457   0.095231050826898   0.110826786729496   1.0000000
B2   B   0.481201930991302   0.237984636148929   0.110828887452962   1.0000000
B2   B   0.491460180327288   0.388962626807678   0.110562375513125   1.0000000
B2   B   0.464103414203845   0.672079820878538   0.110846058175026   1.0000000
B2   B   0.476523436279540   0.812306359098742   0.110666456667692   1.0000000
B2   B   0.621163107514639   0.951223415959406   0.110742440101245   1.0000000
B2   B   0.621884736318440   0.093926795254240   0.110783468694237   1.0000000
B2   B   0.622742403803201   0.236301124451025   0.110834608508122   1.0000000
B2   B   0.624097268644995   0.378328024576240   0.110995356950062   1.0000000
B2   B   0.612958456918639   0.513711343009651   0.109838510731919   1.0000000
B2   B   0.642871783950084   0.670707944835601   0.110027735497507   1.0000000
B2   B   0.620810746154771   0.807287142011715   0.110515367541857   1.0000000
B2   B   0.764249024864027   0.950956606265788   0.110782875662247   1.0000000
B2   B   0.764208441219842   0.093563868440555   0.110791986995952   1.0000000
B2   B   0.764479997765757   0.236137396588319   0.110670682098749   1.0000000
B2   B   0.764817686286153   0.378808809132080   0.110884728092595   1.0000000
B2   B   0.763474423098468   0.521350631609883   0.111148410127200   1.0000000
B2   B   0.771753813231830   0.665380123252979   0.110692000727922   1.0000000
B2   B   0.767995764937225   0.810716662525130   0.110667895686560   1.0000000
N2   N   0.955995322143768   0.905318728393830   0.110856676161388   1.0000000
N2   N   0.955087696345465   0.047246122927105   0.110877546570980   1.0000000
N2   N   0.954160836656933   0.189061157714765   0.110838560034398   1.0000000
N2   N   0.953230206718364   0.331330925316904   0.110673880583185   1.0000000
N2   N   0.951705109098216   0.474374130703931   0.110684247589585   1.0000000
N2   N   0.954732368117666   0.618005604381922   0.110927091621474   1.0000000
N2   N   0.955816481498150   0.762026857100597   0.110973938587476   1.0000000
N2   N   0.097872280586641   0.905393708141721   0.110754660634826   1.0000000
N2   N   0.098211114075656   0.047797537414205   0.110753491904099   1.0000000
N2   N   0.096565074855869   0.189032059505105   0.110737225978740   1.0000000
N2   N   0.095759641016563   0.332051996900991   0.110728349006540   1.0000000
N2   N   0.090925126605298   0.474954424458972   0.110688921069197   1.0000000
N2   N   0.093575113556435   0.618916676529862   0.110672901618810   1.0000000
N2   N   0.096608666904856   0.762530700823191   0.110745503827536   1.0000000
N2   N   0.240014338831421   0.905885938866887   0.110680890932723   1.0000000
N2   N   0.240982501465788   0.047613877235292   0.110691615087651   1.0000000
N2   N   0.241561582409684   0.189685190854685   0.110547959733573   1.0000000
N2   N   0.237881309566167   0.330095723108380   0.110504248424012   1.0000000
N2   N   0.228901186847686   0.476233717677593   0.110667293250783   1.0000000
N2   N   0.232217143860165   0.620754330483411   0.110739077451276   1.0000000
N2   N   0.237911443641654   0.763916003523235   0.110756137283030   1.0000000
N2   N   0.382881882380585   0.907197289081168   0.110781503600925   1.0000000
N2   N   0.384084540690263   0.047317705743347   0.110768059695038   1.0000000
N2   N   0.385463830198719   0.187116930230647   0.110679082722793   1.0000000
N2   N   0.389295530289964   0.326541559916636   0.110255635369668   1.0000000
N2   N   0.370491803811912   0.627863210704509   0.110688649584163   1.0000000
N2   N   0.380527117998872   0.767508112729295   0.110738325882796   1.0000000
N2   N   0.525882519860410   0.906352063483309   0.110743097769738   1.0000000
N2   N   0.526848742539316   0.047692042509887   0.110804706462807   1.0000000
N2   N   0.527906729942000   0.189414926249992   0.110832649430810   1.0000000
N2   N   0.530125401403682   0.332092629965444   0.110887229825439   1.0000000
N2   N   0.558661996230638   0.604223594703282   0.110444752015081   1.0000000
N2   N   0.490093068731238   0.609403285924937   0.111280281646872   1.0000000
N2   N   0.523985281568740   0.764639455789156   0.110498196523684   1.0000000
N2   N   0.668532634627275   0.902957690948589   0.110672421149919   1.0000000
N2   N   0.669208242299442   0.046059642464951   0.110768943431195   1.0000000
N2   N   0.669855970873019   0.188365020263578   0.110709431496135   1.0000000
N2   N   0.670972742197147   0.330430807533150   0.110931360244419   1.0000000
N2   N   0.668939280790846   0.472524807234990   0.110931228319404   1.0000000
N2   N   0.680999750599684   0.616259073600177   0.109783618047470   1.0000000
N2   N   0.673534741603736   0.763722339489808   0.110333269677895   1.0000000
N2   N   0.813727026396687   0.905396508158899   0.110803183943736   1.0000000
N2   N   0.811722430524780   0.046106885126551   0.110834396650847   1.0000000
N2   N   0.811746258658606   0.188422903945444   0.110695762584132   1.0000000
N2   N   0.811901488636045   0.330927133463880   0.110672625786197   1.0000000
N2   N   0.811235756039749   0.473791632016630   0.111022351894567   1.0000000
N2   N   0.816612913376680   0.617117502099025   0.111289716360184   1.0000000
N2   N   0.815072479379005   0.762234319564164   0.110825715452094   1.0000000


