data_1
_audit_creation_method   'vasp2cif'
_cell_length_a    17.52789999999977
_cell_length_b    17.52789999999977
_cell_length_c    15.0
_cell_angle_alpha    90.0
_cell_angle_beta    90.0
_cell_angle_gamma    119.99999999999916

_symmetry_space_group_name_H-M    'P 1'
loop_
_atom_site_label
_atom_site_type_symbol
_atom_site_fract_x
_atom_site_fract_y
_atom_site_fract_z
_atom_site_occupancy
B2   B   0.906456678742168   0.955141327045923   0.111035238357109   1.0000000
B2   B   0.905924048322070   0.097271731699782   0.111053773721381   1.0000000
B2   B   0.905392298664950   0.239324445828224   0.111106218089258   1.0000000
B2   B   0.904549544754897   0.381353388248565   0.110971578463261   1.0000000
B2   B   0.902868886153907   0.523432315550145   0.110975797496551   1.0000000
B2   B   0.901208236013753   0.665829635263853   0.111033232537534   1.0000000
B2   B   0.904274580484973   0.810735426063133   0.111030043745835   1.0000000
B2   B   0.047114952253390   0.952357360240818   0.111004788664196   1.0000000
B2   B   0.048034479253016   0.095915288436277   0.111007929872850   1.0000000
B2   B   0.048115881665718   0.238898788519549   0.111029113347717   1.0000000
B2   B   0.047691477916750   0.381531317327332   0.111020480983439   1.0000000
B2   B   0.046512972619614   0.523763265664870   0.110987065909221   1.0000000
B2   B   0.045311076887466   0.665825447722284   0.111012325445822   1.0000000
B2   B   0.045474466224981   0.808410623883912   0.110975402254680   1.0000000
B2   B   0.188599980911706   0.950519202798832   0.111040728064537   1.0000000
B2   B   0.189456724728761   0.093797812447363   0.111040466561273   1.0000000
B2   B   0.189806097315893   0.236896266561328   0.110981943680945   1.0000000
B2   B   0.190393952653014   0.380830839043855   0.110989661406088   1.0000000
B2   B   0.189821424346653   0.523953056465377   0.111077286452228   1.0000000
B2   B   0.189193018598080   0.666158336869662   0.111092856613208   1.0000000
B2   B   0.188549285655202   0.808160830610515   0.111014214578274   1.0000000
B2   B   0.331574867886462   0.950416134334324   0.110995343086756   1.0000000
B2   B   0.331211701491262   0.092042254706935   0.111055628034962   1.0000000
B2   B   0.331889549629502   0.234918219627933   0.110986887887052   1.0000000
B2   B   0.331465743769046   0.377259414752872   0.110980491313513   1.0000000
B2   B   0.332474833414781   0.524007688073375   0.111044112212216   1.0000000
B2   B   0.333018223425856   0.666999502781983   0.111155404156627   1.0000000
B2   B   0.332100898983014   0.808851595082620   0.111071461332389   1.0000000
B2   B   0.475300671115519   0.952031301277509   0.110998959412921   1.0000000
B2   B   0.474777550371891   0.091965495332731   0.110965316298073   1.0000000
B2   B   0.473957506810434   0.230864250800855   0.110964794422039   1.0000000
B2   B   0.475579903594984   0.370787489199525   0.111272385021270   1.0000000
B2   B   0.477276864285136   0.673316040625196   0.111018059063631   1.0000000
B2   B   0.476123715184915   0.812176423907033   0.111078521277703   1.0000000
B2   B   0.619586691876693   0.954954186442974   0.111002041811124   1.0000000
B2   B   0.618849369561837   0.094979722517432   0.110991837225228   1.0000000
B2   B   0.618344421239405   0.235128787094570   0.110962219759865   1.0000000
B2   B   0.616788116013815   0.374647404666877   0.110982952013214   1.0000000
B2   B   0.628969601210028   0.679286019750867   0.110919393512747   1.0000000
B2   B   0.621262590521484   0.815652924252689   0.110984483721461   1.0000000
B2   B   0.763680268501663   0.956012553290428   0.110988434793493   1.0000000
B2   B   0.762737245609536   0.097069469999193   0.111065987417944   1.0000000
B2   B   0.762135823948866   0.238454246849884   0.111061236984776   1.0000000
B2   B   0.761228119932780   0.380242309854717   0.110978166135680   1.0000000
B2   B   0.758914221676153   0.523836467640992   0.110988415144140   1.0000000
B2   B   0.757465120292374   0.668018791609164   0.111004043758686   1.0000000
B2   B   0.765505232997640   0.815323669211675   0.110986829308991   1.0000000
As2   As   0.493634972640555   0.525111209365390   0.111310156394669   1.0000000
N2   N   0.952903933003323   0.906471667497425   0.111007952624332   1.0000000
N2   N   0.953647471454193   0.049988352172774   0.111015166575315   1.0000000
N2   N   0.953284462812179   0.192129860420540   0.111061607678503   1.0000000
N2   N   0.952767098902649   0.334189871394758   0.111006136804611   1.0000000
N2   N   0.951630412583468   0.476278764334426   0.110926385262252   1.0000000
N2   N   0.950449283634709   0.618666705608554   0.111001198058420   1.0000000
N2   N   0.951013907844099   0.761833271754442   0.110996812335020   1.0000000
N2   N   0.093866397681878   0.903824667955986   0.110972642771462   1.0000000
N2   N   0.094803022143283   0.047515196616510   0.110994923133433   1.0000000
N2   N   0.095171290071110   0.190771844258603   0.110979448553323   1.0000000
N2   N   0.095408173709365   0.333928383335094   0.110995328257324   1.0000000
N2   N   0.094783433621390   0.476533186836342   0.111001063746657   1.0000000
N2   N   0.094004934401312   0.618768847226636   0.111012752968994   1.0000000
N2   N   0.093580114598402   0.761006204291528   0.110969863219675   1.0000000
N2   N   0.236402111751575   0.903103828081553   0.111000431017046   1.0000000
N2   N   0.236212725930086   0.045351656792975   0.111064422566131   1.0000000
N2   N   0.236759463667924   0.188606408460866   0.110983873843442   1.0000000
N2   N   0.236674931186951   0.331694051704058   0.110951270898693   1.0000000
N2   N   0.237314955153571   0.476264006001786   0.111022956644806   1.0000000
N2   N   0.237518263606841   0.619104353290507   0.111124319714878   1.0000000
N2   N   0.236801869055471   0.761152375883413   0.111045584379644   1.0000000
N2   N   0.379830886090277   0.903738485848473   0.110987727742437   1.0000000
N2   N   0.379289309966413   0.044905383949264   0.110996570854533   1.0000000
N2   N   0.378462551119869   0.186046851415357   0.111009852196818   1.0000000
N2   N   0.379207537864325   0.329405080393167   0.110977532139746   1.0000000
N2   N   0.374606129040727   0.471880790633832   0.110973032630094   1.0000000
N2   N   0.381264115922174   0.620090636355972   0.111089155986333   1.0000000
N2   N   0.380401041933583   0.762329731567950   0.111117948069508   1.0000000
N2   N   0.523990901612592   0.906627341086710   0.111018878856153   1.0000000
N2   N   0.523377137103076   0.046236147782163   0.110954701952547   1.0000000
N2   N   0.522833075830018   0.185437256401861   0.110928718753525   1.0000000
N2   N   0.521539893414927   0.322581366127593   0.110972052524620   1.0000000
N2   N   0.537814222346336   0.458924856906301   0.111861693745987   1.0000000
N2   N   0.532864207726656   0.637528230980883   0.110873610688197   1.0000000
N2   N   0.525080217371350   0.767710811145521   0.111005085423875   1.0000000
N2   N   0.668486252918858   0.909923338410840   0.110968241802647   1.0000000
N2   N   0.667499154911880   0.049317103705600   0.111000532152265   1.0000000
N2   N   0.666974271773855   0.189267974305912   0.110989474738099   1.0000000
N2   N   0.666399355666651   0.329035303210686   0.110950067156646   1.0000000
N2   N   0.667221240484905   0.466246257576138   0.110877597268234   1.0000000
N2   N   0.666781027838901   0.627738649084724   0.110932843015907   1.0000000
N2   N   0.671765172655076   0.773109548112766   0.110936210996838   1.0000000
N2   N   0.812442803554873   0.910112656266589   0.110979965503293   1.0000000
N2   N   0.811080590910876   0.050701136673990   0.111016914187761   1.0000000
N2   N   0.810418400010299   0.191779221155691   0.111103839452292   1.0000000
N2   N   0.809749832502543   0.333259159733749   0.110989601798894   1.0000000
N2   N   0.808287291121677   0.475444954949090   0.110960936902278   1.0000000
N2   N   0.806899276298242   0.619369893563439   0.111026191210696   1.0000000
N2   N   0.810867221588661   0.765881106873675   0.111009019771234   1.0000000


