data_1
_audit_creation_method   'vasp2cif'
_cell_length_a    14.93631414619966
_cell_length_b    14.936314146199727
_cell_length_c    13.341276283792837
_cell_angle_alpha    90.0
_cell_angle_beta    90.0
_cell_angle_gamma    119.99999999999984

_symmetry_space_group_name_H-M    'P 1'
loop_
_atom_site_label
_atom_site_type_symbol
_atom_site_fract_x
_atom_site_fract_y
_atom_site_fract_z
_atom_site_occupancy
N2   N   0.435127833595305   0.384230583464317   0.375000000000000   1.0000000
N2   N   0.111081975204319   0.055555590851573   0.125037109071773   1.0000000
N2   N   0.611132954727957   0.555528753206411   0.124777549525656   1.0000000
N2   N   0.444424718796442   0.055574727192330   0.125026276690950   1.0000000
N2   N   0.944464079362454   0.555559638034810   0.125023899181641   1.0000000
N2   N   0.777720298423956   0.055526815878646   0.125041421176066   1.0000000
N2   N   0.111117417972780   0.722225375653054   0.624984950326173   1.0000000
N2   N   0.444424718796442   0.722183324937448   0.624973723309050   1.0000000
N2   N   0.277746392346382   0.222228657275026   0.624861237337818   1.0000000
N2   N   0.777787567133239   0.722217853201508   0.625015772087163   1.0000000
N2   N   0.611087524595436   0.222253860853547   0.624921987902750   1.0000000
N2   N   0.944391655521499   0.222195727905195   0.624989858933938   1.0000000
N2   N   0.277771548977650   0.722208036248396   0.124999162068477   1.0000000
N2   N   0.111050672288759   0.222192002811044   0.125017208516363   1.0000000
N2   N   0.444446004603562   0.222265107865142   0.125089119148613   1.0000000
N2   N   0.611087524595436   0.722166997075217   0.125078012097250   1.0000000
N2   N   0.944464079362454   0.722237774660977   0.125023899181641   1.0000000
N2   N   0.777739909887992   0.222217357514054   0.125040270350527   1.0000000
N2   N   0.111111328009553   0.888903754974581   0.624982375073415   1.0000000
N2   N   0.444419827047691   0.888876580190510   0.624999951084460   1.0000000
N2   N   0.277746392346382   0.388851068404684   0.624861237337818   1.0000000
N2   N   0.611132954727957   0.388937534854875   0.625222450474345   1.0000000
N2   N   0.777739909887992   0.888855885707267   0.624959729649472   1.0000000
N2   N   0.944434891925768   0.388876755551396   0.624991086687504   1.0000000
N2   N   0.111081975204319   0.388859717686075   0.125037109071773   1.0000000
N2   N   0.277771548977650   0.888896846062583   0.124999162068477   1.0000000
N2   N   0.611066792545975   0.888850246432503   0.125036865471394   1.0000000
N2   N   0.444418655286183   0.388875994309756   0.124516732666265   1.0000000
N2   N   0.944434891925768   0.888891469707701   0.125008913312496   1.0000000
N2   N   0.777787567133239   0.388903047265060   0.124984227912837   1.0000000
N2   N   0.277769654373124   0.555522863000056   0.624957861633289   1.0000000
N2   N   0.111081975204319   0.055555590851573   0.624962890928227   1.0000000
N2   N   0.611132954727957   0.555528753206411   0.625222450474345   1.0000000
N2   N   0.444424718796442   0.055574727192330   0.624973723309050   1.0000000
N2   N   0.944464079362454   0.555559638034810   0.624976100818360   1.0000000
N2   N   0.111111328009553   0.555540906368301   0.125017624926585   1.0000000
N2   N   0.777720298423956   0.055526815878646   0.624958578823934   1.0000000
N2   N   0.277769654373124   0.055580124706403   0.125042138366712   1.0000000
N2   N   0.444446004603562   0.555514230071756   0.125089119148613   1.0000000
N2   N   0.777816859486909   0.555575096410122   0.125012261621336   1.0000000
N2   N   0.611066792545975   0.055549879446801   0.125036865471394   1.0000000
N2   N   0.444446004603562   0.555514230071756   0.624910880851388   1.0000000
N2   N   0.944391655521499   0.055529260949640   0.125010141066061   1.0000000
N2   N   0.277771548977650   0.722208036248396   0.625000837931523   1.0000000
N2   N   0.111050672288759   0.222192002811044   0.624982791483638   1.0000000
N2   N   0.444446004603562   0.222265107865142   0.624910880851388   1.0000000
N2   N   0.611087524595436   0.722166997075217   0.624921987902750   1.0000000
N2   N   0.944464079362454   0.722237774660977   0.624976100818360   1.0000000
N2   N   0.777739909887992   0.222217357514054   0.624959729649472   1.0000000
N2   N   0.111117417972780   0.722225375653054   0.125015049673828   1.0000000
N2   N   0.444424718796442   0.722183324937448   0.125026276690950   1.0000000
N2   N   0.277746392346382   0.222228657275026   0.125138762662182   1.0000000
N2   N   0.777787567133239   0.722217853201508   0.124984227912837   1.0000000
N2   N   0.611087524595436   0.222253860853547   0.125078012097250   1.0000000
N2   N   0.944391655521499   0.222195727905195   0.125010141066061   1.0000000
N2   N   0.111081975204319   0.388859717686075   0.624962890928227   1.0000000
N2   N   0.277771548977650   0.888896846062583   0.625000837931523   1.0000000
N2   N   0.611066792545975   0.888850246432503   0.624963134528607   1.0000000
N2   N   0.444418655286183   0.388875994309756   0.625483267333736   1.0000000
N2   N   0.944434891925768   0.888891469707701   0.624991086687504   1.0000000
N2   N   0.111111328009553   0.888903754974581   0.125017624926585   1.0000000
N2   N   0.777787567133239   0.388903047265060   0.625015772087163   1.0000000
N2   N   0.444419827047691   0.888876580190510   0.125000048915540   1.0000000
N2   N   0.277746392346382   0.388851068404684   0.125138762662182   1.0000000
N2   N   0.277769654373124   0.555522863000056   0.125042138366712   1.0000000
N2   N   0.611132954727957   0.388937534854875   0.124777549525656   1.0000000
N2   N   0.777739909887992   0.888855885707267   0.125040270350527   1.0000000
N2   N   0.944434891925768   0.388876755551396   0.125008913312496   1.0000000
N2   N   0.111111328009553   0.555540906368301   0.624982375073415   1.0000000
N2   N   0.277769654373124   0.055580124706403   0.624957861633289   1.0000000
N2   N   0.777816859486909   0.555575096410122   0.624987738378664   1.0000000
N2   N   0.611066792545975   0.055549879446801   0.624963134528607   1.0000000
N2   N   0.944391655521499   0.055529260949640   0.624989858933938   1.0000000
N2   N   0.051751573442122   0.108775293090179   0.375000000000000   1.0000000
N2   N   0.556802300481610   0.597136797089606   0.375000000000000   1.0000000
N2   N   0.390474862636741   0.117577314464655   0.375000000000000   1.0000000
N2   N   0.895141563204380   0.614237448268862   0.375000000000000   1.0000000
N2   N   0.720475644727872   0.111514727512097   0.375000000000000   1.0000000
N2   N   0.055549779997268   0.777775634493971   0.875000000000000   1.0000000
N2   N   0.388883769530885   0.777776210261125   0.875000000000000   1.0000000
N2   N   0.222216644407069   0.277774988870202   0.875000000000000   1.0000000
N2   N   0.722215071876189   0.777775030162235   0.875000000000000   1.0000000
N2   N   0.555547993764298   0.277772708004217   0.875000000000000   1.0000000
N2   N   0.888883405397923   0.277775645641065   0.875000000000000   1.0000000
N2   N   0.225439326305314   0.779386329819325   0.375000000000000   1.0000000
N2   N   0.051751573442122   0.276309613685278   0.375000000000000   1.0000000
N2   N   0.381434315806735   0.279508981564760   0.375000000000000   1.0000000
N2   N   0.555884474317462   0.772212824992946   0.375000000000000   1.0000000
N2   N   0.890950076500920   0.778223072953528   0.375000000000000   1.0000000
N2   N   0.721363687314440   0.280653564261733   0.375000000000000   1.0000000
N2   N   0.055549237447999   0.944441451074982   0.875000000000000   1.0000000
N2   N   0.388883769530885   0.944440892603095   0.875000000000000   1.0000000
N2   N   0.222215861230291   0.444441870597375   0.875000000000000   1.0000000
N2   N   0.555548388769607   0.444440861051468   0.875000000000000   1.0000000
N2   N   0.722212826936095   0.944439946233265   0.875000000000000   1.0000000
N2   N   0.888885296714422   0.444441887844866   0.875000000000000   1.0000000
N2   N   0.055554001647721   0.444509885798935   0.375000000000000   1.0000000
N2   N   0.224649908367043   0.947084615388553   0.375000000000000   1.0000000
N2   N   0.555757631483056   0.944545482408193   0.375000000000000   1.0000000
N2   N   0.381434315806735   0.435258667575311   0.375000000000000   1.0000000
N2   N   0.886753276164259   0.942311733067460   0.375000000000000   1.0000000
N2   N   0.727503330827867   0.449213844995614   0.375000000000000   1.0000000
N2   N   0.222216080315856   0.611108290658816   0.875000000000000   1.0000000
N2   N   0.055548972377809   0.111106913774030   0.875000000000000   1.0000000
N2   N   0.555547993764298   0.611108619093417   0.875000000000000   1.0000000
N2   N   0.388883208861386   0.111107229646988   0.875000000000000   1.0000000
N2   N   0.888884046338646   0.611108689835995   0.875000000000000   1.0000000
N2   N   0.059322099977764   0.612614967515794   0.375000000000000   1.0000000
N2   N   0.722212826936095   0.111106214036166   0.875000000000000   1.0000000
N2   N   0.220008256500528   0.110671358527613   0.375000000000000   1.0000000
N2   N   0.390474862636741   0.606230881505428   0.375000000000000   1.0000000
N2   N   0.727503330827867   0.611622819165589   0.375000000000000   1.0000000
N2   N   0.555884474317462   0.117004982657852   0.375000000000000   1.0000000
N2   N   0.388883208861386   0.611109312547740   0.875000000000000   1.0000000
N2   N   0.885810706379632   0.109572019856487   0.375000000000000   1.0000000
N2   N   0.222216959596081   0.777775146464708   0.875000000000000   1.0000000
N2   N   0.055548972377809   0.277775391937114   0.875000000000000   1.0000000
N2   N   0.388882571706331   0.277772782570062   0.875000000000000   1.0000000
N2   N   0.555546736039598   0.777775173145224   0.875000000000000   1.0000000
N2   N   0.888885296714422   0.777776742202891   0.875000000000000   1.0000000
N2   N   0.722215071876189   0.277773375047290   0.875000000000000   1.0000000
N2   N   0.059322099977764   0.780040465795305   0.375000000000000   1.0000000
N2   N   0.390972009101611   0.776915397026721   0.375000000000000   1.0000000
N2   N   0.215325512163596   0.274329422748466   0.375000000000000   1.0000000
N2   N   0.721363687314440   0.774043456386043   0.375000000000000   1.0000000
N2   N   0.556802300481610   0.292998836725339   0.375000000000000   1.0000000
N2   N   0.886753276164259   0.277774876430135   0.375000000000000   1.0000000
N2   N   0.055549237447999   0.444441119706344   0.875000000000000   1.0000000
N2   N   0.222216080315856   0.944441122990375   0.875000000000000   1.0000000
N2   N   0.555546052741482   0.944439693037404   0.875000000000000   1.0000000
N2   N   0.388882571706331   0.444443122469605   0.875000000000000   1.0000000
N2   N   0.888883405397923   0.944441093090194   0.875000000000000   1.0000000
N2   N   0.055554001647721   0.944377449182115   0.375000000000000   1.0000000
N2   N   0.722216792138620   0.444441339389156   0.875000000000000   1.0000000
N2   N   0.390972009101611   0.947389945408226   0.375000000000000   1.0000000
N2   N   0.220008256500528   0.442670231306251   0.375000000000000   1.0000000
N2   N   0.224649908367043   0.610898626311825   0.375000000000000   1.0000000
N2   N   0.720475644727872   0.942294250549110   0.375000000000000   1.0000000
N2   N   0.890950076500920   0.446060336880728   0.375000000000000   1.0000000
N2   N   0.055549779997268   0.611107478836634   0.875000000000000   1.0000000
N2   N   0.222215861230291   0.111107323966252   0.875000000000000   1.0000000
N2   N   0.722216792138620   0.611108786082801   0.875000000000000   1.0000000
N2   N   0.555546736039598   0.111104896227711   0.875000000000000   1.0000000
N2   N   0.888882313596831   0.111107823465087   0.875000000000000   1.0000000
B2   B   0.108988752369744   0.054744918809146   0.375000000000000   1.0000000
B2   B   0.618241631140173   0.540919073274288   0.375000000000000   1.0000000
B2   B   0.445153387772527   0.060011125618814   0.375000000000000   1.0000000
B2   B   0.948617517084332   0.557208573396263   0.375000000000000   1.0000000
B2   B   0.774899155981738   0.054116244657537   0.375000000000000   1.0000000
B2   B   0.111102581128908   0.722217957231118   0.875000000000000   1.0000000
B2   B   0.444439482333243   0.722217505927332   0.875000000000000   1.0000000
B2   B   0.277786453455415   0.222226202961928   0.875000000000000   1.0000000
B2   B   0.777765248910822   0.722208232803327   0.875000000000000   1.0000000
B2   B   0.611099676397928   0.222225755380079   0.875000000000000   1.0000000
B2   B   0.944435136016716   0.222220661408090   0.875000000000000   1.0000000
B2   B   0.280094813605944   0.722402626595754   0.375000000000000   1.0000000
B2   B   0.105269507922743   0.219301420628036   0.375000000000000   1.0000000
B2   B   0.445168008514165   0.230744703095157   0.375000000000000   1.0000000
B2   B   0.610185013472524   0.712700283633337   0.375000000000000   1.0000000
B2   B   0.948617517084332   0.724742277021407   0.375000000000000   1.0000000
B2   B   0.775519863797799   0.223019674371002   0.375000000000000   1.0000000
B2   B   0.111103603315989   0.888882980926190   0.875000000000000   1.0000000
B2   B   0.444437534928519   0.888885434130924   0.875000000000000   1.0000000
B2   B   0.277786453455415   0.388893583826815   0.875000000000000   1.0000000
B2   B   0.611102269093958   0.388890974651786   0.875000000000000   1.0000000
B2   B   0.777765855401878   0.888876924627781   0.875000000000000   1.0000000
B2   B   0.944434693907106   0.388889325045880   0.875000000000000   1.0000000
B2   B   0.108988752369744   0.387577166893927   0.375000000000000   1.0000000
B2   B   0.280094813605944   0.891025520343519   0.375000000000000   1.0000000
B2   B   0.609729561161914   0.885523634795780   0.375000000000000   1.0000000
B2   B   0.944467776242133   0.888637598906955   0.375000000000000   1.0000000
B2   B   0.779844269050332   0.391419743186785   0.375000000000000   1.0000000
B2   B   0.277777387991379   0.555556406152410   0.875000000000000   1.0000000
B2   B   0.111106284997759   0.055549952402777   0.875000000000000   1.0000000
B2   B   0.611102269093958   0.555544627775501   0.875000000000000   1.0000000
B2   B   0.444439482333243   0.055555309739247   0.875000000000000   1.0000000
B2   B   0.944433160665153   0.555551993082491   0.875000000000000   1.0000000
B2   B   0.113449378665793   0.555878402890713   0.375000000000000   1.0000000
B2   B   0.777765634858383   0.055549484095859   0.875000000000000   1.0000000
B2   B   0.278935352580447   0.058515250399614   0.375000000000000   1.0000000
B2   B   0.445168008514165   0.547756638752343   0.375000000000000   1.0000000
B2   B   0.785657657549628   0.559495495441483   0.375000000000000   1.0000000
B2   B   0.609729561161914   0.057539259699465   0.375000000000000   1.0000000
B2   B   0.444446649986249   0.555551225448872   0.875000000000000   1.0000000
B2   B   0.940899790091604   0.053296839300725   0.375000000000000   1.0000000
B2   B   0.277773122319165   0.722220332477691   0.875000000000000   1.0000000
B2   B   0.111108853380417   0.222221093356873   0.875000000000000   1.0000000
B2   B   0.444446649986249   0.222228757870713   0.875000000000000   1.0000000
B2   B   0.611099676397928   0.722207254351177   0.875000000000000   1.0000000
B2   B   0.944433160665153   0.722214500915998   0.875000000000000   1.0000000
B2   B   0.777765855401878   0.222222264107428   0.875000000000000   1.0000000
B2   B   0.114515968578216   0.723924650955773   0.375000000000000   1.0000000
B2   B   0.445153387772527   0.718475595487048   0.375000000000000   1.0000000
B2   B   0.271271130593424   0.220523368755714   0.375000000000000   1.0000000
B2   B   0.779844269050332   0.721757859196876   0.375000000000000   1.0000000
B2   B   0.610185013472524   0.230818063172515   0.375000000000000   1.0000000
B2   B   0.940899790091604   0.220936284124215   0.375000000000000   1.0000000
B2   B   0.111106284997759   0.388889665928311   0.875000000000000   1.0000000
B2   B   0.277773122319165   0.888886123174801   0.875000000000000   1.0000000
B2   B   0.611098945942513   0.888880311141260   0.875000000000000   1.0000000
B2   B   0.444451393916267   0.388892363624798   0.875000000000000   1.0000000
B2   B   0.944434693907106   0.888878702194553   0.875000000000000   1.0000000
B2   B   0.113449378665793   0.890904309108408   0.375000000000000   1.0000000
B2   B   0.777765248910822   0.388890349440822   0.875000000000000   1.0000000
B2   B   0.445160388396325   0.889246860864826   0.375000000000000   1.0000000
B2   B   0.271271130593424   0.384081095171039   0.375000000000000   1.0000000
B2   B   0.278935352580447   0.553753435514169   0.375000000000000   1.0000000
B2   B   0.618241631140173   0.410655891199213   0.375000000000000   1.0000000
B2   B   0.775519863797799   0.885833522760125   0.375000000000000   1.0000000
B2   B   0.944467776242133   0.389163510668506   0.375000000000000   1.0000000
B2   B   0.111103603315989   0.555553955723126   0.875000000000000   1.0000000
B2   B   0.277777387991379   0.055554315172306   0.875000000000000   1.0000000
B2   B   0.777761899059247   0.555547616196292   0.875000000000000   1.0000000
B2   B   0.611098945942513   0.055551968134582   0.875000000000000   1.0000000
B2   B   0.944435136016716   0.055547807941961   0.875000000000000   1.0000000
B2   B   0.055500462974926   0.111083232151203   0.124979816646423   1.0000000
B2   B   0.555572583732809   0.611029850710813   0.125061592739489   1.0000000
B2   B   0.388905925475094   0.111173362262798   0.125043387175777   1.0000000
B2   B   0.888889172900901   0.611111253117122   0.125001097328074   1.0000000
B2   B   0.722172622320399   0.111103510466298   0.125017137039948   1.0000000
B2   B   0.055557816307900   0.777782262974426   0.624997686581540   1.0000000
B2   B   0.388886467913936   0.777759067384845   0.624996350558696   1.0000000
B2   B   0.222185489945787   0.277759411639561   0.625012186404263   1.0000000
B2   B   0.722194150722598   0.777718890362097   0.624979231452364   1.0000000
B2   B   0.555572583732809   0.277876066355332   0.624938407260510   1.0000000
B2   B   0.888846697975341   0.277770807416033   0.625002775141523   1.0000000
B2   B   0.222227418045087   0.777780375689211   0.124996757043619   1.0000000
B2   B   0.055500462974926   0.277750564157059   0.124979816646423   1.0000000
B2   B   0.388938801831298   0.277878863027671   0.124950389194821   1.0000000
B2   B   0.555539997317317   0.777719645535903   0.125049580930509   1.0000000
B2   B   0.888870443249846   0.777759611174510   0.124999718013305   1.0000000
B2   B   0.722194150722598   0.277808593693835   0.125020768547636   1.0000000
B2   B   0.055535645958097   0.944436681171476   0.625004726075743   1.0000000
B2   B   0.388886467913936   0.944460733862426   0.624996350558696   1.0000000
B2   B   0.222208926095420   0.444419253736581   0.624980373372006   1.0000000
B2   B   0.555507134224987   0.444420233779158   0.625023739881199   1.0000000
B2   B   0.722172622320399   0.944402445187435   0.624982862960052   1.0000000
B2   B   0.888870443249846   0.444444165408672   0.625000281986695   1.0000000
B2   B   0.055535645958097   0.444432298119950   0.124995273924258   1.0000000
B2   B   0.222224316042213   0.944460281155513   0.125001479033163   1.0000000
B2   B   0.555526633396345   0.944429983364838   0.125017500367715   1.0000000
B2   B   0.388938801831298   0.444393272136962   0.124950389194821   1.0000000
B2   B   0.888846697975341   0.944409223892643   0.124997224858476   1.0000000
B2   B   0.722201377000651   0.444461071389917   0.124991473720167   1.0000000
B2   B   0.222224316042213   0.611097368220037   0.624998520966837   1.0000000
B2   B   0.055500462974926   0.111083232151203   0.625020183353577   1.0000000
B2   B   0.555572583732809   0.611029850710813   0.624938407260510   1.0000000
B2   B   0.388905925475094   0.111173362262798   0.624956612824222   1.0000000
B2   B   0.888889172900901   0.611111253117122   0.624998902671926   1.0000000
B2   B   0.055557816307900   0.611108886666810   0.125002313418461   1.0000000
B2   B   0.722172622320399   0.111103510466298   0.624982862960052   1.0000000
B2   B   0.222208926095420   0.111123005692175   0.125019626627994   1.0000000
B2   B   0.388905925475094   0.611065896545638   0.125043387175777   1.0000000
B2   B   0.722201377000651   0.611073638944069   0.124991473720167   1.0000000
B2   B   0.555539997317317   0.111153685114749   0.125049580930509   1.0000000
B2   B   0.388905925475094   0.611065896545638   0.624956612824222   1.0000000
B2   B   0.888830761175953   0.111082047254647   0.124992775540921   1.0000000
B2   B   0.222227418045087   0.777780375689211   0.625003242956381   1.0000000
B2   B   0.055500462974926   0.277750564157059   0.625020183353577   1.0000000
B2   B   0.388938801831298   0.277878863027671   0.625049610805178   1.0000000
B2   B   0.555539997317317   0.777719645535903   0.624950419069491   1.0000000
B2   B   0.888870443249846   0.777759611174510   0.625000281986695   1.0000000
B2   B   0.722194150722598   0.277808593693835   0.624979231452364   1.0000000
B2   B   0.055557816307900   0.777782262974426   0.125002313418461   1.0000000
B2   B   0.388886467913936   0.777759067384845   0.125003649441304   1.0000000
B2   B   0.222185489945787   0.277759411639561   0.124987813595737   1.0000000
B2   B   0.722194150722598   0.777718890362097   0.125020768547636   1.0000000
B2   B   0.555572583732809   0.277876066355332   0.125061592739489   1.0000000
B2   B   0.888846697975341   0.277770807416033   0.124997224858476   1.0000000
B2   B   0.055535645958097   0.444432298119950   0.625004726075743   1.0000000
B2   B   0.222224316042213   0.944460281155513   0.624998520966837   1.0000000
B2   B   0.555526633396345   0.944429983364838   0.624982499632285   1.0000000
B2   B   0.388938801831298   0.444393272136962   0.625049610805178   1.0000000
B2   B   0.888846697975341   0.944409223892643   0.625002775141523   1.0000000
B2   B   0.055535645958097   0.944436681171476   0.124995273924258   1.0000000
B2   B   0.722201377000651   0.444461071389917   0.625008526279833   1.0000000
B2   B   0.388886467913936   0.944460733862426   0.125003649441304   1.0000000
B2   B   0.222208926095420   0.444419253736581   0.125019626627994   1.0000000
B2   B   0.222224316042213   0.611097368220037   0.125001479033163   1.0000000
B2   B   0.555507134224987   0.444420233779158   0.124976260118802   1.0000000
B2   B   0.722172622320399   0.944402445187435   0.125017137039948   1.0000000
B2   B   0.888870443249846   0.444444165408672   0.124999718013305   1.0000000
B2   B   0.055557816307900   0.611108886666810   0.624997686581540   1.0000000
B2   B   0.222208926095420   0.111123005692175   0.624980373372006   1.0000000
B2   B   0.722201377000651   0.611073638944069   0.625008526279833   1.0000000
B2   B   0.555539997317317   0.111153685114749   0.624950419069491   1.0000000
B2   B   0.888830761175953   0.111082047254647   0.625007224459080   1.0000000


