data_1
_audit_creation_method   'vasp2cif'
_cell_length_a    14.93631414619966
_cell_length_b    14.936314146199727
_cell_length_c    13.341276283792837
_cell_angle_alpha    90.0
_cell_angle_beta    90.0
_cell_angle_gamma    119.99999999999984

_symmetry_space_group_name_H-M    'P 1'
loop_
_atom_site_label
_atom_site_type_symbol
_atom_site_fract_x
_atom_site_fract_y
_atom_site_fract_z
_atom_site_occupancy
Al2   Al   0.470120002328409   0.401726667830868   0.375000000000000   1.0000000
N2   N   0.111174003635230   0.055576416764900   0.124662652833891   1.0000000
N2   N   0.611185433959850   0.555611563775114   0.126373399239958   1.0000000
N2   N   0.444475054499695   0.055544469735948   0.124708953188485   1.0000000
N2   N   0.944491285945303   0.555582354299237   0.124964147004348   1.0000000
N2   N   0.777813302033761   0.055573317683548   0.124865958887350   1.0000000
N2   N   0.111148347867590   0.722240840600458   0.625098493059330   1.0000000
N2   N   0.444475054499695   0.722263918097082   0.625291046811517   1.0000000
N2   N   0.277869494066051   0.222255683838240   0.624743318158999   1.0000000
N2   N   0.777831448208574   0.722248566527429   0.624896691005343   1.0000000
N2   N   0.611139411526258   0.222222369558004   0.624997142166279   1.0000000
N2   N   0.944503618008929   0.222255835973107   0.625167119883892   1.0000000
N2   N   0.277806103593729   0.722247112136141   0.124856015833461   1.0000000
N2   N   0.111204165561429   0.222268749447379   0.124733648939791   1.0000000
N2   N   0.444511057902433   0.222221317719640   0.125503244512601   1.0000000
N2   N   0.611139411526258   0.722250375301585   0.125002857833721   1.0000000
N2   N   0.944491285945303   0.722242264979404   0.124964147004348   1.0000000
N2   N   0.777810704021302   0.222247451163850   0.124893949295099   1.0000000
N2   N   0.111152194028496   0.888902341300879   0.625148550562719   1.0000000
N2   N   0.444470195773585   0.888901764553458   0.625148962852829   1.0000000
N2   N   0.277869494066051   0.388947143561137   0.624743318158999   1.0000000
N2   N   0.611185433959850   0.388907203518065   0.623626600760040   1.0000000
N2   N   0.777810704021302   0.888896586190778   0.625106050704900   1.0000000
N2   N   0.944498450884920   0.388919311167486   0.625139450027767   1.0000000
N2   N   0.111174003635230   0.388930920203660   0.124662652833891   1.0000000
N2   N   0.277806103593731   0.888892324790916   0.124856015833461   1.0000000
N2   N   0.611135216715913   0.888909786999937   0.124828680212261   1.0000000
N2   N   0.444641369296923   0.388987351315125   0.130546391015436   1.0000000
N2   N   0.944498450884920   0.888912473050765   0.124860549972233   1.0000000
N2   N   0.777831448208574   0.388916215014474   0.125103308994655   1.0000000
N2   N   0.277825194068668   0.555601497275378   0.625274872590195   1.0000000
N2   N   0.111174003635230   0.055576416764900   0.625337347166108   1.0000000
N2   N   0.611185433959850   0.555611563775114   0.623626600760043   1.0000000
N2   N   0.444475054499695   0.055544469735948   0.625291046811517   1.0000000
N2   N   0.944491285945303   0.555582354299237   0.625035852995657   1.0000000
N2   N   0.111152194028496   0.555583186060949   0.124851449437282   1.0000000
N2   N   0.777813302033761   0.055573317683548   0.625134041112650   1.0000000
N2   N   0.277825194068668   0.055557030126623   0.124725127409804   1.0000000
N2   N   0.444511057902433   0.555623073516128   0.125503244512601   1.0000000
N2   N   0.777829843653983   0.555581588493659   0.125455412972270   1.0000000
N2   N   0.611135216715913   0.055558763049306   0.124828680212261   1.0000000
N2   N   0.444511057902433   0.555623073516128   0.624496755487397   1.0000000
N2   N   0.944503618008929   0.055581115369157   0.124832880116109   1.0000000
N2   N   0.277806103593729   0.722247112136141   0.625143984166537   1.0000000
N2   N   0.111204165561429   0.222268749447379   0.625266351060209   1.0000000
N2   N   0.444511057902433   0.222221317719640   0.624496755487399   1.0000000
N2   N   0.611139411526258   0.722250375301585   0.624997142166279   1.0000000
N2   N   0.944491285945303   0.722242264979404   0.625035852995657   1.0000000
N2   N   0.777810704021302   0.222247451163850   0.625106050704900   1.0000000
N2   N   0.111148347867590   0.722240840600458   0.124901506940669   1.0000000
N2   N   0.444475054499695   0.722263918097082   0.124708953188486   1.0000000
N2   N   0.277869494066051   0.222255683838240   0.125256681841002   1.0000000
N2   N   0.777831448208574   0.722248566527429   0.125103308994655   1.0000000
N2   N   0.611139411526258   0.222222369558004   0.125002857833721   1.0000000
N2   N   0.944503618008929   0.222255835973107   0.124832880116109   1.0000000
N2   N   0.111174003635230   0.388930920203660   0.625337347166108   1.0000000
N2   N   0.277806103593731   0.888892324790916   0.625143984166537   1.0000000
N2   N   0.611135216715913   0.888909786999937   0.625171319787739   1.0000000
N2   N   0.444641369296923   0.388987351315125   0.619453608984561   1.0000000
N2   N   0.944498450884920   0.888912473050765   0.625139450027767   1.0000000
N2   N   0.111152194028496   0.888902341300878   0.124851449437282   1.0000000
N2   N   0.777831448208574   0.388916215014474   0.624896691005343   1.0000000
N2   N   0.444470195773585   0.888901764553458   0.124851037147172   1.0000000
N2   N   0.277869494066051   0.388947143561137   0.125256681841002   1.0000000
N2   N   0.277825194068668   0.555601497275378   0.124725127409804   1.0000000
N2   N   0.611185433959850   0.388907203518065   0.126373399239958   1.0000000
N2   N   0.777810704021302   0.888896586190778   0.124893949295099   1.0000000
N2   N   0.944498450884920   0.388919311167484   0.124860549972233   1.0000000
N2   N   0.111152194028496   0.555583186060949   0.625148550562719   1.0000000
N2   N   0.277825194068668   0.055557030126623   0.625274872590195   1.0000000
N2   N   0.777829843653982   0.555581588493659   0.624544587027731   1.0000000
N2   N   0.611135216715913   0.055558763049306   0.625171319787739   1.0000000
N2   N   0.944503618008928   0.055581115369157   0.625167119883892   1.0000000
N2   N   0.057387093833158   0.112057887811009   0.375000000000000   1.0000000
N2   N   0.556428273041824   0.611035906156140   0.375000000000000   1.0000000
N2   N   0.389319487122277   0.107409663300865   0.375000000000000   1.0000000
N2   N   0.889745173291686   0.611539253312517   0.375000000000000   1.0000000
N2   N   0.723901805216469   0.111777110006953   0.375000000000000   1.0000000
N2   N   0.055523540283330   0.777765690732426   0.875000000000000   1.0000000
N2   N   0.388858132477473   0.777763137867115   0.875000000000000   1.0000000
N2   N   0.222181379225406   0.277757356279370   0.875000000000000   1.0000000
N2   N   0.722196631390532   0.777774897948439   0.875000000000000   1.0000000
N2   N   0.555522746844759   0.277761864379613   0.875000000000000   1.0000000
N2   N   0.888864150849741   0.277763066716245   0.875000000000000   1.0000000
N2   N   0.222342243202387   0.777837788267863   0.375000000000000   1.0000000
N2   N   0.057387093833158   0.278662539355484   0.375000000000000   1.0000000
N2   N   0.387991116592155   0.269113570463295   0.375000000000000   1.0000000
N2   N   0.556997865698157   0.778893732867274   0.375000000000000   1.0000000
N2   N   0.889787858414010   0.778353850840763   0.375000000000000   1.0000000
N2   N   0.723614931280425   0.278225637418854   0.375000000000000   1.0000000
N2   N   0.055523731716141   0.944432519719460   0.875000000000000   1.0000000
N2   N   0.388858132477473   0.944428327943693   0.875000000000000   1.0000000
N2   N   0.222190074706453   0.444420310498471   0.875000000000000   1.0000000
N2   N   0.555511175807077   0.444422254570203   0.875000000000000   1.0000000
N2   N   0.722190499704194   0.944433177445549   0.875000000000000   1.0000000
N2   N   0.888856173395579   0.444423245945586   0.875000000000000   1.0000000
N2   N   0.056114981245651   0.445047701432657   0.375000000000000   1.0000000
N2   N   0.222315628912931   0.943570660092691   0.375000000000000   1.0000000
N2   N   0.556982721477247   0.945158027405288   0.375000000000000   1.0000000
N2   N   0.387991116592157   0.452210879462196   0.375000000000000   1.0000000
N2   N   0.890384468562883   0.945423777846009   0.375000000000000   1.0000000
N2   N   0.723839338873384   0.445625180901474   0.375000000000000   1.0000000
N2   N   0.222186829842598   0.611090062480470   0.875000000000000   1.0000000
N2   N   0.055520280166485   0.111093610962119   0.875000000000000   1.0000000
N2   N   0.555522746844759   0.611094215798479   0.875000000000000   1.0000000
N2   N   0.388855449082454   0.111092965325460   0.875000000000000   1.0000000
N2   N   0.888864747434207   0.611099040383776   0.875000000000000   1.0000000
N2   N   0.055782388775683   0.611349800382364   0.375000000000000   1.0000000
N2   N   0.722190499704194   0.111090655591982   0.875000000000000   1.0000000
N2   N   0.222325032541640   0.109743512224308   0.375000000000000   1.0000000
N2   N   0.389319487122277   0.615243157154757   0.375000000000000   1.0000000
N2   N   0.723839338873386   0.611547491305250   0.375000000000000   1.0000000
N2   N   0.556997865698157   0.111437466164221   0.375000000000000   1.0000000
N2   N   0.388855449082454   0.611095817090338   0.875000000000000   1.0000000
N2   N   0.890712485528737   0.112022909431041   0.375000000000000   1.0000000
N2   N   0.222189194401837   0.777761263867585   0.875000000000000   1.0000000
N2   N   0.055520280166485   0.277760002537703   0.875000000000000   1.0000000
N2   N   0.388863878588135   0.277776095935889   0.875000000000000   1.0000000
N2   N   0.555526862729178   0.777763878281621   0.875000000000000   1.0000000
N2   N   0.888856173395579   0.777766260783329   0.875000000000000   1.0000000
N2   N   0.722196631390532   0.277755066775432   0.875000000000000   1.0000000
N2   N   0.055782388775683   0.777765921726657   0.375000000000000   1.0000000
N2   N   0.389565921174861   0.779182395687088   0.375000000000000   1.0000000
N2   N   0.224843665186663   0.279088499260000   0.375000000000000   1.0000000
N2   N   0.723614931280425   0.778722627194908   0.375000000000000   1.0000000
N2   N   0.556428273041821   0.278725700219019   0.375000000000000   1.0000000
N2   N   0.890384468562882   0.278294024050212   0.375000000000000   1.0000000
N2   N   0.055523731716141   0.444424545330013   0.875000000000000   1.0000000
N2   N   0.222186829842598   0.944430100695463   0.875000000000000   1.0000000
N2   N   0.555522566909416   0.944427950121372   0.875000000000000   1.0000000
N2   N   0.388863878588135   0.444421115985582   0.875000000000000   1.0000000
N2   N   0.888864150849741   0.944434417466833   0.875000000000000   1.0000000
N2   N   0.056114981245651   0.944400613146322   0.375000000000000   1.0000000
N2   N   0.722188417699930   0.444426736754453   0.875000000000000   1.0000000
N2   N   0.389565921174861   0.943716858821107   0.375000000000000   1.0000000
N2   N   0.222325032541640   0.445914853650668   0.375000000000000   1.0000000
N2   N   0.222315628912931   0.612078302153576   0.375000000000000   1.0000000
N2   N   0.723901805216469   0.945458028542856   0.375000000000000   1.0000000
N2   N   0.889787858414010   0.444767340906581   0.375000000000000   1.0000000
N2   N   0.055523540283330   0.611091182884243   0.875000000000000   1.0000000
N2   N   0.222190074706453   0.111103097541318   0.875000000000000   1.0000000
N2   N   0.722188417699930   0.611095014278811   0.875000000000000   1.0000000
N2   N   0.555526862729178   0.111096317780890   0.875000000000000   1.0000000
N2   N   0.888859806967503   0.111096570150424   0.875000000000000   1.0000000
B2   B   0.111758025903180   0.055402004735021   0.375000000000000   1.0000000
B2   B   0.617138386439930   0.563099589731857   0.375000000000000   1.0000000
B2   B   0.445537448395175   0.053677727517490   0.375000000000000   1.0000000
B2   B   0.945492725387392   0.555804481390691   0.375000000000000   1.0000000
B2   B   0.779831811302333   0.056582572317833   0.375000000000000   1.0000000
B2   B   0.110885584725540   0.722109459029434   0.875000000000000   1.0000000
B2   B   0.444498611824820   0.722416129289063   0.875000000000000   1.0000000
B2   B   0.277780065040830   0.222074268446653   0.875000000000000   1.0000000
B2   B   0.777882119051715   0.722167991711804   0.875000000000000   1.0000000
B2   B   0.610896707309827   0.222065536248099   0.875000000000000   1.0000000
B2   B   0.944521904892203   0.222402811279661   0.875000000000000   1.0000000
B2   B   0.278200773655374   0.722952410988890   0.375000000000000   1.0000000
B2   B   0.113530036919725   0.223431685126527   0.375000000000000   1.0000000
B2   B   0.442870234415086   0.216310107562945   0.375000000000000   1.0000000
B2   B   0.613208098598454   0.724641135404950   0.375000000000000   1.0000000
B2   B   0.945492725387392   0.723021577330037   0.375000000000000   1.0000000
B2   B   0.779720985819252   0.222470094636487   0.375000000000000   1.0000000
B2   B   0.111183229519278   0.888784016189806   0.875000000000000   1.0000000
B2   B   0.444209145674510   0.888771239503920   0.875000000000000   1.0000000
B2   B   0.277780065040830   0.389039129927505   0.875000000000000   1.0000000
B2   B   0.611187507252569   0.388748934102590   0.875000000000000   1.0000000
B2   B   0.777866942157642   0.889110766428893   0.875000000000000   1.0000000
B2   B   0.944228921471247   0.388755384365196   0.875000000000000   1.0000000
B2   B   0.111758025903180   0.389689354501489   0.375000000000000   1.0000000
B2   B   0.278200773655374   0.888581695999816   0.375000000000000   1.0000000
B2   B   0.612965866877389   0.890252615658086   0.375000000000000   1.0000000
B2   B   0.945624535403986   0.889829038710826   0.375000000000000   1.0000000
B2   B   0.779929826788955   0.388675362160765   0.375000000000000   1.0000000
B2   B   0.277525057666412   0.555435118827012   0.875000000000000   1.0000000
B2   B   0.111159886260379   0.055741232438936   0.875000000000000   1.0000000
B2   B   0.611187507252569   0.555771906483303   0.875000000000000   1.0000000
B2   B   0.444498611824820   0.055415815869093   0.875000000000000   1.0000000
B2   B   0.944540682816960   0.555445253435861   0.875000000000000   1.0000000
B2   B   0.111472217130983   0.556029665627232   0.375000000000000   1.0000000
B2   B   0.777557957712884   0.055445645523110   0.875000000000000   1.0000000
B2   B   0.277779304099176   0.054081343533936   0.375000000000000   1.0000000
B2   B   0.442870234415086   0.559893460185475   0.375000000000000   1.0000000
B2   B   0.780657720399287   0.556995526866311   0.375000000000000   1.0000000
B2   B   0.612965866877390   0.056046584552636   0.375000000000000   1.0000000
B2   B   0.444480703429875   0.555455315884594   0.875000000000000   1.0000000
B2   B   0.946489936808092   0.056800757775086   0.375000000000000   1.0000000
B2   B   0.277840355681494   0.722102033729068   0.875000000000000   1.0000000
B2   B   0.110852879802499   0.222093106567914   0.875000000000000   1.0000000
B2   B   0.444480703429875   0.222358720878614   0.875000000000000   1.0000000
B2   B   0.610896707309828   0.722164504395060   0.875000000000000   1.0000000
B2   B   0.944540682816960   0.722428762714433   0.875000000000000   1.0000000
B2   B   0.777866942157642   0.222089509062077   0.875000000000000   1.0000000
B2   B   0.111436769466545   0.722385051399940   0.375000000000000   1.0000000
B2   B   0.445537448395175   0.725193054211022   0.375000000000000   1.0000000
B2   B   0.278276088558660   0.220682831493506   0.375000000000000   1.0000000
B2   B   0.779929826788955   0.724587797961518   0.375000000000000   1.0000000
B2   B   0.613208098598453   0.221900296526836   0.375000000000000   1.0000000
B2   B   0.946489936808092   0.223022512366342   0.375000000000000   1.0000000
B2   B   0.111159886260379   0.388751987154770   0.875000000000000   1.0000000
B2   B   0.277840355681494   0.889071655285756   0.875000000000000   1.0000000
B2   B   0.611190674551834   0.888795692903937   0.875000000000000   1.0000000
B2   B   0.444170460746799   0.388751897040063   0.875000000000000   1.0000000
B2   B   0.944228921471247   0.888806870439378   0.875000000000000   1.0000000
B2   B   0.111472217130983   0.888775884837079   0.375000000000000   1.0000000
B2   B   0.777882119051715   0.389047460673242   0.875000000000000   1.0000000
B2   B   0.445669377370541   0.889501355351933   0.375000000000000   1.0000000
B2   B   0.278276088558660   0.390926590398483   0.375000000000000   1.0000000
B2   B   0.277779304099176   0.557031293898577   0.375000000000000   1.0000000
B2   B   0.617138386439930   0.387372130041406   0.375000000000000   1.0000000
B2   B   0.779720985819252   0.890584224516094   0.375000000000000   1.0000000
B2   B   0.945624535403986   0.389128830026489   0.375000000000000   1.0000000
B2   B   0.111183229519278   0.555732546662803   0.875000000000000   1.0000000
B2   B   0.277525057666412   0.055423272172738   0.875000000000000   1.0000000
B2   B   0.777588671353535   0.555461002343433   0.875000000000000   1.0000000
B2   B   0.611190674551834   0.055728314981225   0.875000000000000   1.0000000
B2   B   0.944521904892203   0.055452426945877   0.875000000000000   1.0000000
B2   B   0.055615016731679   0.111139915622744   0.124929996487881   1.0000000
B2   B   0.555518812977590   0.611324770588304   0.125304379302075   1.0000000
B2   B   0.388802449233254   0.110891079993865   0.124962070633342   1.0000000
B2   B   0.889152236684160   0.611242785008748   0.125057267433766   1.0000000
B2   B   0.722258904308311   0.111080622775909   0.124967465775885   1.0000000
B2   B   0.055700764622213   0.777852081734227   0.624998343863906   1.0000000
B2   B   0.388863672937965   0.777828574419252   0.625071532810093   1.0000000
B2   B   0.222191536724782   0.277762435029059   0.624644789895233   1.0000000
B2   B   0.722317017489075   0.777939013176496   0.625024294244884   1.0000000
B2   B   0.555518812977590   0.277527375722620   0.624695620697926   1.0000000
B2   B   0.888990905930407   0.277788407223866   0.625027402914769   1.0000000
B2   B   0.222267971771214   0.777800652552276   0.125071891954931   1.0000000
B2   B   0.055615016731679   0.277808434442271   0.124929996487881   1.0000000
B2   B   0.388663251401834   0.277377820599845   0.127090220477844   1.0000000
B2   B   0.555527957599621   0.777901218124051   0.124856879848052   1.0000000
B2   B   0.889089171829333   0.777929415844497   0.124958384010837   1.0000000
B2   B   0.722317017489076   0.277711337645913   0.124975705755117   1.0000000
B2   B   0.055649676795329   0.944494565854441   0.625022092128011   1.0000000
B2   B   0.388863672937965   0.944368431852046   0.625071532810093   1.0000000
B2   B   0.222202170791329   0.444508971188568   0.625061081024218   1.0000000
B2   B   0.555832188901744   0.444582761117536   0.623295238168762   1.0000000
B2   B   0.722258904308311   0.944511614865737   0.625032534224116   1.0000000
B2   B   0.889089171829333   0.444493089318168   0.625041615989164   1.0000000
B2   B   0.055649676795329   0.444488444274220   0.124977907871989   1.0000000
B2   B   0.222242954994675   0.944402509244855   0.124949527138207   1.0000000
B2   B   0.555541867177086   0.944437600255205   0.124998291996807   1.0000000
B2   B   0.388663251401834   0.444618764135325   0.127090220477844   1.0000000
B2   B   0.888990905930407   0.944535832039877   0.124972597085233   1.0000000
B2   B   0.722509415783664   0.444513485796602   0.125221284135430   1.0000000
B2   B   0.222242954994675   0.611173779083156   0.625050472861792   1.0000000
B2   B   0.055615016731679   0.111139915622744   0.625070003512120   1.0000000
B2   B   0.555518812977590   0.611324770588304   0.624695620697926   1.0000000
B2   B   0.388802449233254   0.110891079993866   0.625037929366660   1.0000000
B2   B   0.889152236684160   0.611242785008748   0.624942732566232   1.0000000
B2   B   0.055700764622213   0.611182016221322   0.125001656136095   1.0000000
B2   B   0.722258904308311   0.111080622775909   0.625032534224116   1.0000000
B2   B   0.222202170791329   0.111026532936097   0.124938918975782   1.0000000
B2   B   0.388802449233254   0.611244702572728   0.124962070633342   1.0000000
B2   B   0.722509415783664   0.611329263320397   0.125221284135430   1.0000000
B2   B   0.555527957599621   0.110960072808905   0.124856879848052   1.0000000
B2   B   0.388802449233254   0.611244702572728   0.625037929366660   1.0000000
B2   B   0.888958920760238   0.111146127046790   0.125047882675900   1.0000000
B2   B   0.222267971771214   0.777800652552276   0.624928108045069   1.0000000
B2   B   0.055615016731679   0.277808434442271   0.625070003512120   1.0000000
B2   B   0.388663251401834   0.277377820599845   0.622909779522155   1.0000000
B2   B   0.555527957599621   0.777901218124051   0.625143120151947   1.0000000
B2   B   0.889089171829333   0.777929415844497   0.625041615989164   1.0000000
B2   B   0.722317017489075   0.277711337645913   0.625024294244884   1.0000000
B2   B   0.055700764622213   0.777852081734227   0.125001656136095   1.0000000
B2   B   0.388863672937965   0.777828574419252   0.124928467189908   1.0000000
B2   B   0.222191536724782   0.277762435029059   0.125355210104766   1.0000000
B2   B   0.722317017489076   0.777939013176496   0.124975705755117   1.0000000
B2   B   0.555518812977590   0.277527375722620   0.125304379302075   1.0000000
B2   B   0.888990905930407   0.277788407223866   0.124972597085233   1.0000000
B2   B   0.055649676795329   0.444488444274220   0.625022092128011   1.0000000
B2   B   0.222242954994675   0.944402509244855   0.625050472861792   1.0000000
B2   B   0.555541867177086   0.944437600255204   0.625001708003194   1.0000000
B2   B   0.388663251401834   0.444618764135325   0.622909779522155   1.0000000
B2   B   0.888990905930407   0.944535832039877   0.625027402914769   1.0000000
B2   B   0.055649676795329   0.944494565854441   0.124977907871989   1.0000000
B2   B   0.722509415783664   0.444513485796602   0.624778715864568   1.0000000
B2   B   0.388863672937965   0.944368431852046   0.124928467189908   1.0000000
B2   B   0.222202170791329   0.444508971188568   0.124938918975782   1.0000000
B2   B   0.222242954994675   0.611173779083156   0.124949527138207   1.0000000
B2   B   0.555832188901744   0.444582761117536   0.126704761831236   1.0000000
B2   B   0.722258904308311   0.944511614865737   0.124967465775885   1.0000000
B2   B   0.889089171829333   0.444493089318168   0.124958384010837   1.0000000
B2   B   0.055700764622213   0.611182016221322   0.624998343863906   1.0000000
B2   B   0.222202170791329   0.111026532936097   0.625061081024218   1.0000000
B2   B   0.722509415783664   0.611329263320397   0.624778715864568   1.0000000
B2   B   0.555527957599621   0.110960072808905   0.625143120151947   1.0000000
B2   B   0.888958920760238   0.111146127046790   0.624952117324098   1.0000000


