data_1
_audit_creation_method   'vasp2cif'
_cell_length_a    17.52789999999977
_cell_length_b    17.52789999999977
_cell_length_c    15.0
_cell_angle_alpha    90.0
_cell_angle_beta    90.0
_cell_angle_gamma    119.99999999999916

_symmetry_space_group_name_H-M    'P 1'
loop_
_atom_site_label
_atom_site_type_symbol
_atom_site_fract_x
_atom_site_fract_y
_atom_site_fract_z
_atom_site_occupancy
B2   B   0.909441068081740   0.954302615629723   0.110722199683163   1.0000000
B2   B   0.909044931970781   0.096164225855266   0.110759103363155   1.0000000
B2   B   0.908871887296455   0.238111744608521   0.110729095749438   1.0000000
B2   B   0.908829027255210   0.380452600288363   0.110705534049877   1.0000000
B2   B   0.908177796914319   0.523066400365514   0.110738702434238   1.0000000
B2   B   0.907484357088550   0.665776924245189   0.110751649147895   1.0000000
B2   B   0.905109335525023   0.807789142760961   0.110720896232259   1.0000000
B2   B   0.050804079208215   0.953957907122858   0.110699333908929   1.0000000
B2   B   0.052764103772849   0.097597240304199   0.110765193238615   1.0000000
B2   B   0.052028555625903   0.239126616863021   0.110793031510951   1.0000000
B2   B   0.050961258555142   0.381333447244005   0.110748464307497   1.0000000
B2   B   0.049776307203531   0.524409590120665   0.110726139937713   1.0000000
B2   B   0.049480733872763   0.667582548176426   0.110737354009481   1.0000000
B2   B   0.049417153435724   0.810591582923503   0.110730138125622   1.0000000
B2   B   0.193372880758045   0.954931345324749   0.110700990207841   1.0000000
B2   B   0.196557937784340   0.099938023662940   0.110705085795320   1.0000000
B2   B   0.196514728963925   0.241651540979171   0.110746369662339   1.0000000
B2   B   0.193701842595346   0.382083460369663   0.110745112824144   1.0000000
B2   B   0.190749907634121   0.524989028440689   0.110731743388647   1.0000000
B2   B   0.190671823725408   0.668501921805951   0.110740173289537   1.0000000
B2   B   0.192041741864105   0.811571431486751   0.110727656759064   1.0000000
B2   B   0.335534321331421   0.954696029827485   0.110721188299549   1.0000000
B2   B   0.337368906466877   0.098529780958495   0.110727739293391   1.0000000
B2   B   0.343945180891161   0.247274645347921   0.110751141302923   1.0000000
B2   B   0.339717743877024   0.385729895513766   0.110757671769780   1.0000000
B2   B   0.330837387389081   0.525734264528176   0.110713844262543   1.0000000
B2   B   0.330775478017971   0.669348573674350   0.110719363335265   1.0000000
B2   B   0.334320085050129   0.812020066912248   0.110774180669421   1.0000000
B2   B   0.478012825520978   0.953537723591691   0.110751790640422   1.0000000
B2   B   0.479158197673276   0.095652943909357   0.110755714590765   1.0000000
B2   B   0.480965406547391   0.238459188747488   0.110761613977014   1.0000000
B2   B   0.497514625235029   0.393952262545770   0.110801137182753   1.0000000
B2   B   0.468451019170191   0.667663509233709   0.110759631859985   1.0000000
B2   B   0.476761749599442   0.811301284782079   0.110752186812599   1.0000000
B2   B   0.621212174680132   0.954512178541437   0.110756982384694   1.0000000
B2   B   0.621998688184661   0.094982919915697   0.110735632426459   1.0000000
B2   B   0.622873377914197   0.235388559298398   0.110740892532575   1.0000000
B2   B   0.624779762174437   0.374677193487606   0.110774479655668   1.0000000
B2   B   0.609769873093997   0.498489760702293   0.110769060120805   1.0000000
B2   B   0.620144435614895   0.814755015225564   0.110719188101260   1.0000000
B2   B   0.765390812859991   0.953994791595668   0.110745063369585   1.0000000
B2   B   0.765496453632919   0.095529732277884   0.110717136269847   1.0000000
B2   B   0.765949941064057   0.237053513214082   0.110711385741471   1.0000000
B2   B   0.766796744517034   0.378695628455846   0.110708275798597   1.0000000
B2   B   0.765460261389366   0.519717432670816   0.110725381850486   1.0000000
B2   B   0.762013943331893   0.658317561038177   0.110742888018889   1.0000000
B2   B   0.767397475321300   0.812932125230233   0.110753849575446   1.0000000
Ge2   Ge   0.614940467764875   0.660063619690007   0.110753697265088   1.0000000
N2   N   0.954418421135479   0.904271949493339   0.110690114779134   1.0000000
N2   N   0.957163405230886   0.049160099268832   0.110744947515228   1.0000000
N2   N   0.956641321663925   0.190957437346673   0.110744141386743   1.0000000
N2   N   0.956137827261816   0.333090764252226   0.110711190407540   1.0000000
N2   N   0.955350029880134   0.475735138500851   0.110706984057933   1.0000000
N2   N   0.954770614207633   0.618651770219659   0.110735216862734   1.0000000
N2   N   0.953600608223071   0.761336933889568   0.110721158651430   1.0000000
N2   N   0.097742128578814   0.906110327756832   0.110688719454458   1.0000000
N2   N   0.100067703863318   0.050013455353913   0.110701961226372   1.0000000
N2   N   0.100569484751804   0.192602217643312   0.110766602567945   1.0000000
N2   N   0.098578760590768   0.333944073681851   0.110760174375050   1.0000000
N2   N   0.096546926807735   0.476572148130200   0.110728377036241   1.0000000
N2   N   0.096213475255929   0.619869232054983   0.110713104962903   1.0000000
N2   N   0.096745857748353   0.763055827620242   0.110716248705779   1.0000000
N2   N   0.240244944996787   0.906866945758035   0.110696960058462   1.0000000
N2   N   0.242073875448339   0.050480471221317   0.110682459633229   1.0000000
N2   N   0.246331652632230   0.196302819389639   0.110711394739730   1.0000000
N2   N   0.243246956595533   0.336271712680506   0.110723526774497   1.0000000
N2   N   0.237203012543742   0.476952699537235   0.110690545761295   1.0000000
N2   N   0.236760546755701   0.620534165251059   0.110712805453640   1.0000000
N2   N   0.239114148939781   0.763900160673196   0.110737551287695   1.0000000
N2   N   0.382798469865835   0.906900857661976   0.110732766625301   1.0000000
N2   N   0.383944803420814   0.049678509722728   0.110724213226786   1.0000000
N2   N   0.386266057488838   0.194003130749877   0.110729937816454   1.0000000
N2   N   0.396081899900083   0.345604970054460   0.110764093438383   1.0000000
N2   N   0.377656431789983   0.479202159303898   0.110739044994236   1.0000000
N2   N   0.375627010531499   0.621323063776335   0.110709287044408   1.0000000
N2   N   0.381470679154454   0.764514011279226   0.110738630605866   1.0000000
N2   N   0.525758644516424   0.906172296125398   0.110744023445611   1.0000000
N2   N   0.526683145838926   0.048089685509321   0.110738123593186   1.0000000
N2   N   0.527837589573159   0.189948878113996   0.110738273417889   1.0000000
N2   N   0.530586382478250   0.332292251128495   0.110753105377489   1.0000000
N2   N   0.467647683917103   0.521376117921183   0.110902565440227   1.0000000
N2   N   0.502938142321170   0.609874141864536   0.110785949116494   1.0000000
N2   N   0.524392267157543   0.763287328377613   0.110700315974978   1.0000000
N2   N   0.669547070839159   0.908367152002574   0.110723437612187   1.0000000
N2   N   0.670069680802890   0.048532793417910   0.110717626177477   1.0000000
N2   N   0.670779069410227   0.189074779485205   0.110716297339870   1.0000000
N2   N   0.672345998199411   0.329222132607437   0.110722792276280   1.0000000
N2   N   0.671550102145203   0.468241341752547   0.110717751739971   1.0000000
N2   N   0.665409747094504   0.597501539829609   0.110734341766318   1.0000000
N2   N   0.673635980185259   0.774275857044850   0.110713367661088   1.0000000
N2   N   0.814373140386363   0.907168534259759   0.110738971609095   1.0000000
N2   N   0.813522096975031   0.048482864348361   0.110719354535618   1.0000000
N2   N   0.813687943600925   0.190144616257831   0.110698527524498   1.0000000
N2   N   0.814186481584169   0.331892656490730   0.110681364649511   1.0000000
N2   N   0.813800792665039   0.473850325275291   0.110709646065261   1.0000000
N2   N   0.812543908134606   0.615576923800180   0.110723391489803   1.0000000
N2   N   0.807599261377140   0.757183191730830   0.110721659212671   1.0000000


