data_1
_audit_creation_method   'vasp2cif'
_cell_length_a    17.52789999999977
_cell_length_b    17.52789999999977
_cell_length_c    15.0
_cell_angle_alpha    90.0
_cell_angle_beta    90.0
_cell_angle_gamma    119.99999999999916

_symmetry_space_group_name_H-M    'P 1'
loop_
_atom_site_label
_atom_site_type_symbol
_atom_site_fract_x
_atom_site_fract_y
_atom_site_fract_z
_atom_site_occupancy
B2   B   0.905589495706693   0.953716352742046   0.111013968535450   1.0000000
B2   B   0.904132888922553   0.095869132273443   0.111027998531678   1.0000000
B2   B   0.903708732138368   0.238685734785360   0.111041767536777   1.0000000
B2   B   0.903862000571155   0.381576991244388   0.110982414552447   1.0000000
B2   B   0.905070783159444   0.524584049161871   0.110998310656248   1.0000000
B2   B   0.906906094722619   0.668016975168154   0.111081390308730   1.0000000
B2   B   0.907487772825402   0.811810336796027   0.111049377934377   1.0000000
B2   B   0.047835839362163   0.952166181833840   0.110999049966326   1.0000000
B2   B   0.046285668453958   0.094412525489303   0.111013968535450   1.0000000
B2   B   0.045946193826028   0.237753832576329   0.111012377264787   1.0000000
B2   B   0.046482448399553   0.381048610816090   0.111003079408047   1.0000000
B2   B   0.047722881263004   0.523919068100773   0.111001152504209   1.0000000
B2   B   0.048603956395759   0.666784574514516   0.111039429739448   1.0000000
B2   B   0.048727605702694   0.809691964436061   0.111019935059554   1.0000000
B2   B   0.190310056759942   0.951274415493309   0.111019935059554   1.0000000
B2   B   0.188191684399977   0.092514248370594   0.111049377934377   1.0000000
B2   B   0.186724697820946   0.234985118273355   0.111019840109118   1.0000000
B2   B   0.188116175390099   0.379845621886496   0.111010543580237   1.0000000
B2   B   0.190634524688185   0.523359064833237   0.111053826553737   1.0000000
B2   B   0.191188394619617   0.666248273444922   0.111059894230631   1.0000000
B2   B   0.191026940209543   0.808975080986461   0.110993504577819   1.0000000
B2   B   0.333217446682482   0.951398064800245   0.111039429739448   1.0000000
B2   B   0.331985046028843   0.093095926473378   0.111081390308730   1.0000000
B2   B   0.327699205679982   0.231752790872840   0.111008586673463   1.0000000
B2   B   0.326185779099339   0.375010979912696   0.110994369721052   1.0000000
B2   B   0.333669339066406   0.522360010315790   0.111039913059848   1.0000000
B2   B   0.334238242782261   0.665763778414738   0.111099829337885   1.0000000
B2   B   0.333753747752076   0.808813626576385   0.111059894230631   1.0000000
B2   B   0.476082953096225   0.952279139933000   0.111001152504209   1.0000000
B2   B   0.475417972035127   0.094931238036552   0.110998310656248   1.0000000
B2   B   0.473863787972846   0.236740492964698   0.111003723324596   1.0000000
B2   B   0.464384939419228   0.369584954236754   0.111021307755536   1.0000000
B2   B   0.477642010881207   0.666332682130592   0.111039913059848   1.0000000
B2   B   0.476642956363760   0.809367496507819   0.111053826553737   1.0000000
B2   B   0.618953410379914   0.953519572796451   0.111003079408047   1.0000000
B2   B   0.618425029951615   0.096140020624841   0.110982414552447   1.0000000
B2   B   0.617832551352810   0.239129986090868   0.111015697505828   1.0000000
B2   B   0.617344748618440   0.382657272577564   0.110993530406043   1.0000000
B2   B   0.630417066959249   0.535617081777769   0.111021307755536   1.0000000
B2   B   0.624991041283308   0.673816242097659   0.110994369721052   1.0000000
B2   B   0.620156399309508   0.811885845805905   0.111010543580237   1.0000000
B2   B   0.762248188619675   0.954055827369976   0.111012377264787   1.0000000
B2   B   0.761316286410644   0.096293289057628   0.111041767536777   1.0000000
B2   B   0.760894780501675   0.239107240694329   0.111053367182534   1.0000000
B2   B   0.760872035105136   0.382169469843195   0.111015697505828   1.0000000
B2   B   0.763261528231306   0.526138233224152   0.111003723324596   1.0000000
B2   B   0.768249230323163   0.672302815517016   0.111008586673463   1.0000000
B2   B   0.765016902922649   0.813277323375057   0.111019840109118   1.0000000
N2   N   0.953302483972830   0.906009969478203   0.110997986974558   1.0000000
N2   N   0.951824916022774   0.048176485895233   0.111005460277616   1.0000000
N2   N   0.951197785742589   0.190892516297635   0.111017778947496   1.0000000
N2   N   0.951308888568325   0.333859483770220   0.110985990863015   1.0000000
N2   N   0.952134151440726   0.476691878891157   0.110958280412314   1.0000000
N2   N   0.953197513744347   0.619571638806849   0.111035509800459   1.0000000
N2   N   0.953690557954353   0.762822802679241   0.111052643059818   1.0000000
N2   N   0.095479556613967   0.904521845304031   0.110977944311954   1.0000000
N2   N   0.093991432439796   0.046698917945176   0.110997986974558   1.0000000
N2   N   0.092841371572363   0.189236689304902   0.110998262477917   1.0000000
N2   N   0.093646800534490   0.333014523214730   0.110990318848484   1.0000000
N2   N   0.095316104518728   0.476177229341138   0.111003694817351   1.0000000
N2   N   0.095900541391942   0.618944460283203   0.111016058020555   1.0000000
N2   N   0.095935224863913   0.761764472890960   0.110985715553155   1.0000000
N2   N   0.238236929027046   0.904066177054085   0.110985715553155   1.0000000
N2   N   0.237178599238765   0.046310843963652   0.111052643059818   1.0000000
N2   N   0.234257730891891   0.187121629635296   0.111019052670640   1.0000000
N2   N   0.233437010760279   0.329949214046477   0.110982926150460   1.0000000
N2   N   0.238349817931529   0.475202956198546   0.111014716313657   1.0000000
N2   N   0.239054548695544   0.618434788318579   0.111066540699688   1.0000000
N2   N   0.238683656572356   0.761317745345649   0.111026410424527   1.0000000
N2   N   0.381056941634795   0.904100860526056   0.111016058020555   1.0000000
N2   N   0.380429763111149   0.046803888173659   0.111035509800459   1.0000000
N2   N   0.378954986457103   0.188589758387471   0.111025027618223   1.0000000
N2   N   0.373188268472078   0.326658802170749   0.110949206361409   1.0000000
N2   N   0.376743596139897   0.469173716608596   0.110976085601509   1.0000000
N2   N   0.382540508813279   0.617460893104720   0.111055208502530   1.0000000
N2   N   0.381566613599420   0.760946853222461   0.111066540699688   1.0000000
N2   N   0.523824172575859   0.904685297399271   0.111003694817351   1.0000000
N2   N   0.523309523025839   0.047867250477280   0.110958280412314   1.0000000
N2   N   0.522543345885614   0.190975249488043   0.110981075591159   1.0000000
N2   N   0.521090657553026   0.334374357728852   0.110986330170819   1.0000000
N2   N   0.530827685308401   0.623257805778101   0.110976085601509   1.0000000
N2   N   0.524798445718451   0.761651583986477   0.111014716313657   1.0000000
N2   N   0.666986878702266   0.906354601383509   0.110990318848484   1.0000000
N2   N   0.666141918146777   0.048692513349682   0.110985990863015   1.0000000
N2   N   0.665527666465706   0.191795708832034   0.110996028706566   1.0000000
N2   N   0.664719379948706   0.335282021968291   0.111002187535409   1.0000000
N2   N   0.665627044188144   0.478910744363971   0.110986330170819   1.0000000
N2   N   0.673342599746249   0.626813133445921   0.110949206361409   1.0000000
N2   N   0.670052187870518   0.766564391157726   0.110982926150460   1.0000000
N2   N   0.810764712613098   0.907160030345635   0.110998262477917   1.0000000
N2   N   0.809108885620364   0.048803616175417   0.111017778947496   1.0000000
N2   N   0.808496429892932   0.191504972025066   0.111045682426078   1.0000000
N2   N   0.808205693085964   0.334473735451290   0.110996028706566   1.0000000
N2   N   0.809026152429955   0.477458056031383   0.110981075591159   1.0000000
N2   N   0.811411643530528   0.621046415460896   0.111025027618223   1.0000000
N2   N   0.812879772282702   0.765743671026115   0.111019052670640   1.0000000
As2   As   0.494824809634081   0.505177211562918   0.111643708850847   1.0000000


