data_1
_audit_creation_method   'vasp2cif'
_cell_length_a    17.52789999999977
_cell_length_b    17.52789999999977
_cell_length_c    15.0
_cell_angle_alpha    90.0
_cell_angle_beta    90.0
_cell_angle_gamma    119.99999999999916

_symmetry_space_group_name_H-M    'P 1'
loop_
_atom_site_label
_atom_site_type_symbol
_atom_site_fract_x
_atom_site_fract_y
_atom_site_fract_z
_atom_site_occupancy
B2   B   0.909575184176718   0.954310403269494   0.110735625914346   1.0000000
B2   B   0.909171967333097   0.096205780355996   0.110761001221783   1.0000000
B2   B   0.908953656107329   0.238134880094887   0.110737431446527   1.0000000
B2   B   0.908918215237063   0.380502525058137   0.110717338993537   1.0000000
B2   B   0.908314241093303   0.523178217630763   0.110747970105104   1.0000000
B2   B   0.907817648056704   0.665951432944846   0.110758457651999   1.0000000
B2   B   0.905664825627922   0.808054592469196   0.110740045188899   1.0000000
B2   B   0.050891530630815   0.953898205793647   0.110709681893848   1.0000000
B2   B   0.052835155458807   0.097499035008391   0.110760478664385   1.0000000
B2   B   0.052161430312438   0.239084354686483   0.110795483288433   1.0000000
B2   B   0.050994051429772   0.381369027189444   0.110755736126410   1.0000000
B2   B   0.049668174267502   0.524526161978102   0.110733991191698   1.0000000
B2   B   0.049546290755922   0.667723828353901   0.110736918031944   1.0000000
B2   B   0.049577461680217   0.810665143433790   0.110741037277489   1.0000000
B2   B   0.193289629734335   0.954752750543154   0.110717794367132   1.0000000
B2   B   0.196351231188524   0.099453168930034   0.110714968716170   1.0000000
B2   B   0.196633529273113   0.241340615380193   0.110759346078193   1.0000000
B2   B   0.193775428492404   0.382116370083290   0.110755827665744   1.0000000
B2   B   0.190329645866644   0.525184427519435   0.110719416130817   1.0000000
B2   B   0.190525745709693   0.668718742615956   0.110742187242462   1.0000000
B2   B   0.191960341084218   0.811645947554211   0.110739234354667   1.0000000
B2   B   0.335380495047387   0.954587998076422   0.110730886336204   1.0000000
B2   B   0.337114224782954   0.097979808776965   0.110752933478122   1.0000000
B2   B   0.343402644709786   0.246090762919909   0.110761087636911   1.0000000
B2   B   0.339959194838686   0.385035443670874   0.110762859260093   1.0000000
B2   B   0.329891996520274   0.526534211288779   0.110703508938466   1.0000000
B2   B   0.330435493051645   0.669897162985701   0.110741851004678   1.0000000
B2   B   0.334044898191387   0.812223671607059   0.110786182741532   1.0000000
B2   B   0.477864185290111   0.953615927918788   0.110753018806758   1.0000000
B2   B   0.479016702365064   0.095368226070080   0.110766896980639   1.0000000
B2   B   0.480661379759493   0.237541402902678   0.110761276869429   1.0000000
B2   B   0.496559030837278   0.391280013826919   0.110754081905829   1.0000000
B2   B   0.468042768990426   0.669100615788465   0.110707775258946   1.0000000
B2   B   0.476395337174613   0.811783795184000   0.110755254751927   1.0000000
B2   B   0.621163066896744   0.954581150371409   0.110771844481794   1.0000000
B2   B   0.621949590258035   0.094937467033948   0.110744677868949   1.0000000
B2   B   0.622855308698607   0.235231888073715   0.110744092379454   1.0000000
B2   B   0.624960704188496   0.374480710486062   0.110781430183067   1.0000000
B2   B   0.610011091273685   0.497961279093167   0.110713567239786   1.0000000
B2   B   0.619857761108861   0.815017430218701   0.110688954554986   1.0000000
B2   B   0.765575044421807   0.954181475895036   0.110746541697344   1.0000000
B2   B   0.765537074439825   0.095580693858895   0.110732215591752   1.0000000
B2   B   0.765996110607172   0.237055964113068   0.110721846203431   1.0000000
B2   B   0.766968909304223   0.378705053540727   0.110715769307065   1.0000000
B2   B   0.765871625387494   0.519812516890059   0.110737724964603   1.0000000
B2   B   0.763266104971731   0.659155943346815   0.110725571730603   1.0000000
B2   B   0.768093108311316   0.813045071425047   0.110727597109165   1.0000000
As2   As   0.615811525038308   0.660402010090377   0.110666698359649   1.0000000
N2   N   0.954350219262916   0.904182802338696   0.110704166550071   1.0000000
N2   N   0.957167378316990   0.049063907976494   0.110746786153030   1.0000000
N2   N   0.956868933784853   0.191024370667895   0.110747890287882   1.0000000
N2   N   0.956322697949193   0.333164689861148   0.110726534583674   1.0000000
N2   N   0.955348575659375   0.475810527270880   0.110717298842831   1.0000000
N2   N   0.954744469903608   0.618709668223677   0.110737310090529   1.0000000
N2   N   0.953575320189009   0.761319541629711   0.110728363636106   1.0000000
N2   N   0.097701977458764   0.906053103572274   0.110701412867069   1.0000000
N2   N   0.100056827579284   0.049929409221146   0.110710054630459   1.0000000
N2   N   0.100957847496841   0.192761089752132   0.110761678440568   1.0000000
N2   N   0.099087819887267   0.334154566292062   0.110768669611743   1.0000000
N2   N   0.096584418902413   0.476673498991240   0.110732976846155   1.0000000
N2   N   0.096271863195985   0.619942314568860   0.110716658572201   1.0000000
N2   N   0.096746007271304   0.763070667521733   0.110723751911812   1.0000000
N2   N   0.240205861784305   0.906800902301190   0.110710576545478   1.0000000
N2   N   0.242000894059286   0.050316806769399   0.110701035201985   1.0000000
N2   N   0.246371918357615   0.196141587247331   0.110724595186465   1.0000000
N2   N   0.244312825321191   0.336812766729362   0.110737354098280   1.0000000
N2   N   0.237282884407662   0.477263870453655   0.110690482545184   1.0000000
N2   N   0.236959157615722   0.620657749869722   0.110716287704335   1.0000000
N2   N   0.239096575184565   0.763900795725088   0.110745138136819   1.0000000
N2   N   0.382743941150685   0.906823668436292   0.110739294718440   1.0000000
N2   N   0.383885922360070   0.049530106442582   0.110738713153475   1.0000000
N2   N   0.386186298126416   0.193713715428157   0.110736865715798   1.0000000
N2   N   0.396217878846898   0.345339412892589   0.110748361702737   1.0000000
N2   N   0.377860295096455   0.480256535805962   0.110730431677756   1.0000000
N2   N   0.376115252313676   0.621504570810717   0.110716314209242   1.0000000
N2   N   0.381404999332802   0.764471679527343   0.110752197452757   1.0000000
N2   N   0.525682719403864   0.906070848112290   0.110748703349835   1.0000000
N2   N   0.526634666561725   0.047989228981352   0.110744901249581   1.0000000
N2   N   0.527774961320192   0.189771730431953   0.110743965193615   1.0000000
N2   N   0.530507255816163   0.331862712731892   0.110759287026162   1.0000000
N2   N   0.465978786102792   0.523554049037372   0.110907523276361   1.0000000
N2   N   0.503031615130750   0.609942727121920   0.110671081777786   1.0000000
N2   N   0.524170599524115   0.763107336628610   0.110694671219777   1.0000000
N2   N   0.669464687887859   0.907965505124997   0.110731322933774   1.0000000
N2   N   0.670016218608469   0.048355493002765   0.110735863788718   1.0000000
N2   N   0.670744970088388   0.189060113443950   0.110723896425824   1.0000000
N2   N   0.672318040472712   0.329326450682241   0.110727274510102   1.0000000
N2   N   0.671447442295525   0.468479459932593   0.110731468764578   1.0000000
N2   N   0.665296990325071   0.597097730349964   0.110613914759511   1.0000000
N2   N   0.673431279684105   0.774162412529008   0.110611874357188   1.0000000
N2   N   0.814041626562754   0.906791370708431   0.110743623487507   1.0000000
N2   N   0.813523236504068   0.048384580309364   0.110728589051362   1.0000000
N2   N   0.813740447882537   0.190141514370785   0.110713423232140   1.0000000
N2   N   0.814221435195558   0.331956078575190   0.110689860786231   1.0000000
N2   N   0.813744507934359   0.473935078520207   0.110716797724691   1.0000000
N2   N   0.812357348514904   0.615539298691682   0.110735600976778   1.0000000
N2   N   0.807452325297994   0.757010647149083   0.110727168050823   1.0000000


