data_1
_audit_creation_method   'vasp2cif'
_cell_length_a    17.52789999999977
_cell_length_b    17.52789999999977
_cell_length_c    15.0
_cell_angle_alpha    90.0
_cell_angle_beta    90.0
_cell_angle_gamma    119.99999999999916

_symmetry_space_group_name_H-M    'P 1'
loop_
_atom_site_label
_atom_site_type_symbol
_atom_site_fract_x
_atom_site_fract_y
_atom_site_fract_z
_atom_site_occupancy
B2   B   0.904937965093716   0.953385662973365   0.097657008087345   1.0000000
B2   B   0.904064773346868   0.095936433648066   0.099665115297437   1.0000000
B2   B   0.903713103033782   0.238744852494966   0.104023287219128   1.0000000
B2   B   0.903641133458246   0.381501694115847   0.107751186801731   1.0000000
B2   B   0.904448206821295   0.524309844403169   0.108827493313557   1.0000000
B2   B   0.905596243286828   0.667373183681357   0.105629332000348   1.0000000
B2   B   0.906042914553274   0.810937862324537   0.099732104123500   1.0000000
B2   B   0.047593924193649   0.952407911671833   0.098790315017989   1.0000000
B2   B   0.046616307820242   0.095060116465895   0.097673442437531   1.0000000
B2   B   0.046394655318949   0.238184452361630   0.101144690690619   1.0000000
B2   B   0.046692628266759   0.381043699755286   0.106106322626962   1.0000000
B2   B   0.047630653446228   0.523735375420893   0.108170680569481   1.0000000
B2   B   0.048281817688651   0.666577676598145   0.106886825906501   1.0000000
B2   B   0.048203103542650   0.809567760045945   0.102748464198668   1.0000000
B2   B   0.190428446045059   0.951794539505017   0.102850972249119   1.0000000
B2   B   0.189066182984103   0.093957171495711   0.099820441056778   1.0000000
B2   B   0.188243673501889   0.236791304651961   0.100977189198497   1.0000000
B2   B   0.189168201330680   0.380310574455145   0.109163746209393   1.0000000
B2   B   0.190927127767283   0.522997618896312   0.113503978393046   1.0000000
B2   B   0.191508489245852   0.665927761425898   0.111405431747910   1.0000000
B2   B   0.191056493467624   0.808941550993561   0.106877270964203   1.0000000
B2   B   0.333420586588222   0.951714997322033   0.107151107123971   1.0000000
B2   B   0.332624837643935   0.094396246520852   0.105810156815988   1.0000000
B2   B   0.329995947196655   0.235080837402062   0.106047683837707   1.0000000
B2   B   0.328868036810753   0.378267791921627   0.120113723967946   1.0000000
B2   B   0.334232266641549   0.520542272333260   0.129769837230631   1.0000000
B2   B   0.335102860022742   0.664892707040117   0.121025498660833   1.0000000
B2   B   0.334070566367698   0.808493863282288   0.111609259567883   1.0000000
B2   B   0.476266418238609   0.952363375075432   0.108545932983950   1.0000000
B2   B   0.475690989107272   0.095539304269554   0.109138279314364   1.0000000
B2   B   0.474668970874352   0.238288646791201   0.116538787808548   1.0000000
B2   B   0.464987533556168   0.372526529164401   0.142500942331384   1.0000000
B2   B   0.479456002483244   0.665764466970274   0.129833843879745   1.0000000
B2   B   0.476999335476439   0.809073896632758   0.113783912031577   1.0000000
B2   B   0.618960995238164   0.953314580519741   0.106397358476765   1.0000000
B2   B   0.618501967344888   0.096360644353359   0.108040341740721   1.0000000
B2   B   0.617852357651774   0.239644514624817   0.114143035869178   1.0000000
B2   B   0.616748324133038   0.383262666575251   0.128708625098554   1.0000000
B2   B   0.627489231735806   0.535024311621719   0.142481237784068   1.0000000
B2   B   0.621732279050424   0.671131791211695   0.120097474155809   1.0000000
B2   B   0.619692903047389   0.810840096746406   0.109297160672054   1.0000000
B2   B   0.761816702618596   0.953610927259612   0.101239431874338   1.0000000
B2   B   0.761261346230173   0.096291851380650   0.104154699630846   1.0000000
B2   B   0.760809259108962   0.239194304154026   0.108765389650070   1.0000000
B2   B   0.760348488904431   0.382149059554068   0.114017789590501   1.0000000
B2   B   0.761712771858535   0.525336019989106   0.116410490661084   1.0000000
B2   B   0.764919994413559   0.670010328862388   0.105962490479491   1.0000000
B2   B   0.763206744348271   0.811761845044019   0.100946983098830   1.0000000
N2   N   0.952928015841493   0.905828062629988   0.097930093616545   1.0000000
N2   N   0.951742740700660   0.048259559793279   0.097511630441079   1.0000000
N2   N   0.951131183121868   0.190950978731630   0.101113554717159   1.0000000
N2   N   0.951150594185207   0.333799713735393   0.105544466842586   1.0000000
N2   N   0.952002697975087   0.476604801958403   0.107839845566019   1.0000000
N2   N   0.953033843661445   0.619497294390251   0.107097652829453   1.0000000
N2   N   0.953314652042018   0.762648509762796   0.102219991875306   1.0000000
N2   N   0.095362643681303   0.904641166414175   0.101002336989763   1.0000000
N2   N   0.094177519085909   0.047073162326483   0.097979122611195   1.0000000
N2   N   0.093170348283747   0.189681675371446   0.098685332003837   1.0000000
N2   N   0.093540774301709   0.333022265820255   0.104510665512114   1.0000000
N2   N   0.094965233442998   0.476093139333271   0.108524246000899   1.0000000
N2   N   0.095836548547313   0.618943729226735   0.108545477555915   1.0000000
N2   N   0.095821570409797   0.761806868681616   0.105427539513272   1.0000000
N2   N   0.238192995997498   0.904178923509916   0.105574156396401   1.0000000
N2   N   0.237352095202865   0.046681706369706   0.102357274020036   1.0000000
N2   N   0.235242585207046   0.188121813237031   0.100044262965257   1.0000000
N2   N   0.234222556257167   0.330659950717691   0.106528481212942   1.0000000
N2   N   0.237530090016625   0.475100295025829   0.116367781582763   1.0000000
N2   N   0.238953090278730   0.618411082201413   0.115901325647373   1.0000000
N2   N   0.238651589577787   0.761348126607352   0.110135112616719   1.0000000
N2   N   0.381054624759462   0.904163325316612   0.108876441208223   1.0000000
N2   N   0.380501073329154   0.046961552314951   0.107379589767097   1.0000000
N2   N   0.379432106448282   0.189021375309693   0.108610329444504   1.0000000
N2   N   0.375103530969657   0.327982836231368   0.115173474139661   1.0000000
N2   N   0.374893656636186   0.468610575859504   0.139135250025481   1.0000000
N2   N   0.382370663225976   0.617622905061428   0.130345661479713   1.0000000
N2   N   0.381585547462616   0.761050692098716   0.116123450093088   1.0000000
N2   N   0.523912437841679   0.905040705379170   0.108900985750035   1.0000000
N2   N   0.523397005398566   0.047990560145303   0.108222898125403   1.0000000
N2   N   0.522753090832711   0.190854317052179   0.112583537632459   1.0000000
N2   N   0.520566714650715   0.332740835275946   0.130598157895961   1.0000000
N2   N   0.531392210856252   0.625099726591258   0.139138484251810   1.0000000
N2   N   0.524901667784291   0.762476508257453   0.116554043636234   1.0000000
N2   N   0.666982133945009   0.906466540604749   0.104704274091832   1.0000000
N2   N   0.666205852493236   0.048854534519690   0.105815619647795   1.0000000
N2   N   0.665652127726690   0.191822032625842   0.110136806033775   1.0000000
N2   N   0.664824481781615   0.335179278529723   0.118846736458617   1.0000000
N2   N   0.667273158173336   0.479443841292849   0.130554358269295   1.0000000
N2   N   0.672018147656252   0.624899733884286   0.115124658304312   1.0000000
N2   N   0.669338072791165   0.765781480114935   0.106537006592998   1.0000000
N2   N   0.810316636797398   0.906832535357018   0.098686585807644   1.0000000
N2   N   0.809050851773522   0.048872575402539   0.101200865463793   1.0000000
N2   N   0.808489002003368   0.191516398841580   0.105514504399837   1.0000000
N2   N   0.808178667964491   0.334351407281684   0.109978204889567   1.0000000
N2   N   0.809138168086277   0.477248069493352   0.112365824483133   1.0000000
N2   N   0.810974378840958   0.620571683096059   0.108489045122119   1.0000000
N2   N   0.811874761054216   0.764763942081553   0.099960171981952   1.0000000
Sb2   Sb   0.500075467115361   0.499955245680631   0.206610065714453   1.0000000


