data_1
_audit_creation_method   'vasp2cif'
_cell_length_a    17.52789999999977
_cell_length_b    17.52789999999977
_cell_length_c    15.0
_cell_angle_alpha    90.0
_cell_angle_beta    90.0
_cell_angle_gamma    119.99999999999916

_symmetry_space_group_name_H-M    'P 1'
loop_
_atom_site_label
_atom_site_type_symbol
_atom_site_fract_x
_atom_site_fract_y
_atom_site_fract_z
_atom_site_occupancy
Sb2   Sb   0.519373293081532   0.492488658269192   0.119834752897527   1.0000000
B2   B   0.904756102139184   0.951901133769518   0.108137964032058   1.0000000
B2   B   0.903557010042695   0.093796298404045   0.110751999030819   1.0000000
B2   B   0.903639215805758   0.236498080792460   0.111118924292477   1.0000000
B2   B   0.904517065766700   0.379599261115967   0.108504132226654   1.0000000
B2   B   0.907321828616420   0.523442468591867   0.104963382034130   1.0000000
B2   B   0.908698748051335   0.667632810659244   0.106432467989201   1.0000000
B2   B   0.908019514970545   0.811245214998071   0.105609538253680   1.0000000
B2   B   0.047854312664750   0.952103894770089   0.109065088866204   1.0000000
B2   B   0.046805685796048   0.094517749034284   0.111635390924980   1.0000000
B2   B   0.046170379657495   0.236896112669992   0.112766294148830   1.0000000
B2   B   0.046301243358183   0.379661420868184   0.113113017244257   1.0000000
B2   B   0.047443634894118   0.523073767999765   0.109949752532670   1.0000000
B2   B   0.048578220233561   0.666733563726404   0.106298084461910   1.0000000
B2   B   0.048977768327895   0.809892514005477   0.106408024172967   1.0000000
B2   B   0.190217811516977   0.951685232313660   0.111237651668618   1.0000000
B2   B   0.188227012708589   0.092780270500597   0.111373842145824   1.0000000
B2   B   0.189205200983324   0.237596390756461   0.108834022323351   1.0000000
B2   B   0.188433974982919   0.380199487590671   0.111643159766759   1.0000000
B2   B   0.188238155662165   0.523210011177329   0.115039168423702   1.0000000
B2   B   0.188796988378006   0.666564135007443   0.113261765721570   1.0000000
B2   B   0.190327224057297   0.809452357882994   0.110864552824405   1.0000000
B2   B   0.332673743286468   0.951597864688770   0.112376229046817   1.0000000
B2   B   0.332083941612046   0.093125369433597   0.110014615664179   1.0000000
B2   B   0.327280673470679   0.231534340457255   0.102478829146026   1.0000000
B2   B   0.332440151437708   0.382627889510256   0.100143874166526   1.0000000
B2   B   0.329272531042593   0.524550006640505   0.109371097507638   1.0000000
B2   B   0.328861050570629   0.667561686696968   0.113528581407021   1.0000000
B2   B   0.332063311757923   0.809668864167021   0.112932512713348   1.0000000
B2   B   0.475235745988026   0.951115184636828   0.111227214196540   1.0000000
B2   B   0.475388357732201   0.092950508982477   0.110431066988187   1.0000000
B2   B   0.474865810834093   0.233591968729970   0.107110789811423   1.0000000
B2   B   0.463475374451032   0.361692004721686   0.099993803539835   1.0000000
B2   B   0.492365711382615   0.587751215670422   0.094434583877471   1.0000000
B2   B   0.467694406868110   0.665899699161624   0.098797088888581   1.0000000
B2   B   0.474126749239450   0.808675338392647   0.108720955152236   1.0000000
B2   B   0.617680103984258   0.950378371229712   0.108630715169373   1.0000000
B2   B   0.618262204327372   0.093487241274337   0.109239630321210   1.0000000
B2   B   0.618665375433167   0.236367985254974   0.109123692433397   1.0000000
B2   B   0.620065020358882   0.379998141563743   0.117810821316314   1.0000000
B2   B   0.645691271741956   0.535463674423381   0.152705975945794   1.0000000
B2   B   0.630128436396896   0.669178792439809   0.137132091838394   1.0000000
B2   B   0.616233536808425   0.806708164911098   0.109434957863368   1.0000000
B2   B   0.760590608220085   0.950582792627526   0.109047421807680   1.0000000
B2   B   0.760767671113855   0.093421319568342   0.109287615634864   1.0000000
B2   B   0.761304351887798   0.236396736456878   0.108768847073365   1.0000000
B2   B   0.762717331112811   0.379744415835321   0.109113393875393   1.0000000
B2   B   0.769387421821397   0.524533858177701   0.118458400923074   1.0000000
B2   B   0.772878965017717   0.672373842327234   0.125153496951729   1.0000000
B2   B   0.763429261890376   0.809443998110171   0.112670733257631   1.0000000
N2   N   0.953161351092170   0.905246617870259   0.106303462009561   1.0000000
N2   N   0.951530617056416   0.046664894750508   0.110349038958495   1.0000000
N2   N   0.951048124606245   0.188866749791274   0.112135409578748   1.0000000
N2   N   0.951324368601779   0.331688693266131   0.111165674177218   1.0000000
N2   N   0.952848020310772   0.474881900190029   0.106698700063586   1.0000000
N2   N   0.954035739222150   0.618695517698830   0.103653865416083   1.0000000
N2   N   0.954217521757391   0.762485737613960   0.104401857531067   1.0000000
N2   N   0.095420655476498   0.904624737517611   0.109029627601815   1.0000000
N2   N   0.093942929761582   0.046505813949577   0.111927558049526   1.0000000
N2   N   0.094312100338287   0.189910111987785   0.112070819525458   1.0000000
N2   N   0.093713671560363   0.332027972581584   0.113732252670132   1.0000000
N2   N   0.093836785730984   0.474901997025255   0.113610212968953   1.0000000
N2   N   0.094515138291651   0.618321470783796   0.109633103246299   1.0000000
N2   N   0.095628575093786   0.761787256590755   0.107466565464932   1.0000000
N2   N   0.237791097259304   0.904366688608348   0.111903415000602   1.0000000
N2   N   0.237175267732872   0.046552694919560   0.111729668947245   1.0000000
N2   N   0.234296150600689   0.187291163908720   0.108495552490772   1.0000000
N2   N   0.237521964709055   0.334056903642250   0.106376712413727   1.0000000
N2   N   0.235288889708080   0.475187635155082   0.113660250360944   1.0000000
N2   N   0.234979033690057   0.618451780926509   0.116151621846796   1.0000000
N2   N   0.237226487197477   0.761663760113322   0.112909422269943   1.0000000
N2   N   0.380294437209413   0.904348242907748   0.112577847708128   1.0000000
N2   N   0.380363283896928   0.046495894997083   0.111509783392899   1.0000000
N2   N   0.379331544539498   0.188172491965561   0.105786385486968   1.0000000
N2   N   0.372585093023693   0.325759071132182   0.094628818656504   1.0000000
N2   N   0.380897159359909   0.481590437219439   0.103041526762902   1.0000000
N2   N   0.374674605497620   0.619596298383997   0.109046220925203   1.0000000
N2   N   0.379207828824562   0.762033908937745   0.112023148639658   1.0000000
N2   N   0.522690164234715   0.903330979956059   0.109815764275619   1.0000000
N2   N   0.523215217245170   0.046007955077935   0.110516252565250   1.0000000
N2   N   0.523351557476833   0.188060219276177   0.109146607011874   1.0000000
N2   N   0.523027315442632   0.329411432960246   0.108132941890884   1.0000000
N2   N   0.521091591479742   0.759806591955637   0.104033301602753   1.0000000
N2   N   0.664850232429186   0.901563565826297   0.108472896776638   1.0000000
N2   N   0.665583454531740   0.045516506284680   0.108780584987386   1.0000000
N2   N   0.666056676044305   0.188954487334049   0.108622471818663   1.0000000
N2   N   0.666675232172948   0.332483492966369   0.111180263490767   1.0000000
N2   N   0.675174176487827   0.476569501826795   0.133215227854965   1.0000000
N2   N   0.682187028926319   0.628077694543886   0.151649567055802   1.0000000
N2   N   0.665230325150814   0.758737665293525   0.118857315360963   1.0000000
N2   N   0.808803189402643   0.903426500045035   0.108522100101857   1.0000000
N2   N   0.808096045462612   0.045496601922954   0.109532134813846   1.0000000
N2   N   0.808439875362199   0.188605790814585   0.109646962345875   1.0000000
N2   N   0.809150669528750   0.331752309831627   0.108019659162075   1.0000000
N2   N   0.812575310773091   0.475272252503609   0.107408804821014   1.0000000
N2   N   0.814475332932454   0.620015388317143   0.115956662059820   1.0000000
N2   N   0.813342018400554   0.764378084019407   0.110434101017828   1.0000000


