data_1
_audit_creation_method   'vasp2cif'
_cell_length_a    17.52789999999977
_cell_length_b    17.52789999999977
_cell_length_c    15.0
_cell_angle_alpha    90.0
_cell_angle_beta    90.0
_cell_angle_gamma    119.99999999999916

_symmetry_space_group_name_H-M    'P 1'
loop_
_atom_site_label
_atom_site_type_symbol
_atom_site_fract_x
_atom_site_fract_y
_atom_site_fract_z
_atom_site_occupancy
In2   In   0.412361844070267   0.479314882455036   0.109427389000706   1.0000000
B2   B   0.908563699880352   0.955196584887763   0.110685862437237   1.0000000
B2   B   0.906922875940421   0.097628877675537   0.110623725887800   1.0000000
B2   B   0.906037966488919   0.240124853994710   0.110688710823489   1.0000000
B2   B   0.905003303178774   0.382248828159826   0.110614152720528   1.0000000
B2   B   0.904147303340139   0.524377620367296   0.110828954779134   1.0000000
B2   B   0.907386127667211   0.667408706376399   0.111028115434522   1.0000000
B2   B   0.910144143187555   0.812729081847457   0.110803107492269   1.0000000
B2   B   0.048954840655543   0.950591598114167   0.110738699801464   1.0000000
B2   B   0.047306854988725   0.093034822014815   0.110347166884240   1.0000000
B2   B   0.048424155508019   0.238234430988277   0.110674985726430   1.0000000
B2   B   0.048814540507725   0.381465357644216   0.110829452365604   1.0000000
B2   B   0.048023458843799   0.523816964753189   0.110406954998590   1.0000000
B2   B   0.049224352821751   0.665884350300405   0.110671387838951   1.0000000
B2   B   0.049606332104140   0.808219425467290   0.110758193217361   1.0000000
B2   B   0.190921479344085   0.948252782657150   0.111021358230647   1.0000000
B2   B   0.187581881437140   0.087573915090745   0.110769304570091   1.0000000
B2   B   0.185820149442218   0.229856060400204   0.110692298211165   1.0000000
B2   B   0.192335125220184   0.379958166410518   0.112533267618682   1.0000000
B2   B   0.191258338953392   0.523902394804692   0.110715011562651   1.0000000
B2   B   0.192616755642356   0.666128189108606   0.109896154205537   1.0000000
B2   B   0.192158424254496   0.807491390342629   0.110651772836062   1.0000000
B2   B   0.334732534485725   0.949283200025418   0.111203489151763   1.0000000
B2   B   0.332624908065103   0.087100809271454   0.111085541247523   1.0000000
B2   B   0.325925394888126   0.218643767328004   0.107623448670715   1.0000000
B2   B   0.322535164261146   0.352238393918021   0.114808422158169   1.0000000
B2   B   0.333711091557248   0.533606078645319   0.111228088488498   1.0000000
B2   B   0.337472412229666   0.671082005781390   0.109791068296189   1.0000000
B2   B   0.336062458792116   0.809959349011770   0.109929237205546   1.0000000
B2   B   0.478957929143456   0.952747867777682   0.110794082819486   1.0000000
B2   B   0.477502083533533   0.093697902494580   0.111168074149993   1.0000000
B2   B   0.474843887416372   0.233682714116200   0.110668731169083   1.0000000
B2   B   0.463118989883129   0.365621663546230   0.109886469487709   1.0000000
B2   B   0.484338490726264   0.668831246015737   0.110759996358773   1.0000000
B2   B   0.480691369152163   0.811345504927471   0.109806571006505   1.0000000
B2   B   0.622594324233918   0.956152325409545   0.110814533381218   1.0000000
B2   B   0.621146782770612   0.097743152506464   0.110897508918599   1.0000000
B2   B   0.619475797494049   0.240226710020685   0.111010044498903   1.0000000
B2   B   0.616294903398120   0.384239345021558   0.111461208462004   1.0000000
B2   B   0.623873132920749   0.540834474553061   0.111477348590338   1.0000000
B2   B   0.634328617827615   0.681431579847659   0.110674481425048   1.0000000
B2   B   0.625227287087354   0.815895989012535   0.110402067167429   1.0000000
B2   B   0.766053804017057   0.957093867046111   0.110891515126602   1.0000000
B2   B   0.764255757759682   0.098610087476673   0.110862614428934   1.0000000
B2   B   0.762847745547871   0.240679772277501   0.110773782845123   1.0000000
B2   B   0.760882885649262   0.383048181332532   0.110963506967321   1.0000000
B2   B   0.759804485854499   0.526209173849002   0.111252539464638   1.0000000
B2   B   0.772023737190822   0.675169381316946   0.110873025186106   1.0000000
B2   B   0.770298452007172   0.817443155007519   0.110787298126587   1.0000000
N2   N   0.955550399130962   0.906642645257038   0.110563419536107   1.0000000
N2   N   0.953689161478762   0.049004105963111   0.110505643332519   1.0000000
N2   N   0.953522489600891   0.192308206695398   0.110561919751070   1.0000000
N2   N   0.953202056224163   0.334873104989730   0.110599184868973   1.0000000
N2   N   0.952367936378913   0.477038528114264   0.110560727950037   1.0000000
N2   N   0.954130580189001   0.619252612130918   0.110932764064722   1.0000000
N2   N   0.955377626929763   0.762575279295939   0.110770086068948   1.0000000
N2   N   0.096375293995070   0.902600743915957   0.110766746529415   1.0000000
N2   N   0.093930344305555   0.043987660471924   0.110821179155070   1.0000000
N2   N   0.092434125073015   0.186676059382961   0.110002994244338   1.0000000
N2   N   0.096252037840435   0.333400107036896   0.111344691626143   1.0000000
N2   N   0.095672192547205   0.476537258176142   0.110528300862541   1.0000000
N2   N   0.096909754509103   0.618769696168939   0.110274507159930   1.0000000
N2   N   0.097114163719539   0.760682973320737   0.110734122164497   1.0000000
N2   N   0.239540879249857   0.901969649292754   0.111055149802045   1.0000000
N2   N   0.237435593292497   0.041879167465700   0.111006787157052   1.0000000
N2   N   0.232291068441728   0.179892251350965   0.110009896864792   1.0000000
N2   N   0.231582647991233   0.323179581866091   0.113236130220097   1.0000000
N2   N   0.238390932962281   0.476610736586242   0.111921788320894   1.0000000
N2   N   0.240755455170747   0.619897966609984   0.109664120388166   1.0000000
N2   N   0.240488073434401   0.761252338384545   0.110064194423376   1.0000000
N2   N   0.383702222630188   0.904296550178699   0.110754975035271   1.0000000
N2   N   0.382316116010994   0.043106763771645   0.111495791252649   1.0000000
N2   N   0.379667705277057   0.179619770215452   0.110061268709273   1.0000000
N2   N   0.370884084462081   0.308269145678349   0.105249151302342   1.0000000
N2   N   0.386730221039668   0.627477909323026   0.110785762020915   1.0000000
N2   N   0.385143448703105   0.765338972520220   0.109175804358636   1.0000000
N2   N   0.527617577618748   0.906795837823638   0.110488997768479   1.0000000
N2   N   0.526171807319654   0.047898905665860   0.110998618881360   1.0000000
N2   N   0.524467689062757   0.188816546282017   0.110999702541562   1.0000000
N2   N   0.520406662744293   0.329400581322168   0.111169851529377   1.0000000
N2   N   0.539676694875845   0.530688412142572   0.112865585688095   1.0000000
N2   N   0.543289320443593   0.631860070070926   0.111609611716315   1.0000000
N2   N   0.530150861614693   0.765611878260021   0.109903146774464   1.0000000
N2   N   0.671377810972964   0.910545608261280   0.110817457270704   1.0000000
N2   N   0.669381554358900   0.051135566538011   0.110934199125698   1.0000000
N2   N   0.667817821111463   0.193036972271519   0.110803710578385   1.0000000
N2   N   0.665380201984866   0.336079996530468   0.111154905330298   1.0000000
N2   N   0.663177579756168   0.480853585398120   0.111508048431996   1.0000000
N2   N   0.681513524505585   0.634374529119497   0.110414262231045   1.0000000
N2   N   0.677436488083347   0.774223036297854   0.110406491586923   1.0000000
N2   N   0.815143777664856   0.911086496791955   0.110897544749002   1.0000000
N2   N   0.812341188713899   0.051632237662496   0.110832022168219   1.0000000
N2   N   0.810969872484663   0.193421473899246   0.110748636028459   1.0000000
N2   N   0.809509425927174   0.335594338958400   0.110703392593737   1.0000000
N2   N   0.808285094816815   0.478043039196388   0.110990991590064   1.0000000
N2   N   0.813319999090007   0.621774223628886   0.111182365893210   1.0000000
N2   N   0.817521036801169   0.769331897426434   0.110970759119040   1.0000000


