data_1
_audit_creation_method   'vasp2cif'
_cell_length_a    14.93631414619966
_cell_length_b    14.936314146199727
_cell_length_c    13.341276283792837
_cell_angle_alpha    90.0
_cell_angle_beta    90.0
_cell_angle_gamma    119.99999999999984

_symmetry_space_group_name_H-M    'P 1'
loop_
_atom_site_label
_atom_site_type_symbol
_atom_site_fract_x
_atom_site_fract_y
_atom_site_fract_z
_atom_site_occupancy
Al2   Al   0.555555555555557   0.444444444444443   0.375000000000000   1.0000000
N2   N   0.111020535904740   0.055525892447274   0.125133580069231   1.0000000
N2   N   0.611424264579408   0.556181862492414   0.123467706603564   1.0000000
N2   N   0.444472554342555   0.055568618534681   0.124506960860675   1.0000000
N2   N   0.944431381465369   0.555527445657593   0.124506960860669   1.0000000
N2   N   0.777831483291525   0.055582408312436   0.126154373191424   1.0000000
N2   N   0.111100454011965   0.722216893672499   0.624677773652006   1.0000000
N2   N   0.444472554342555   0.722237269141246   0.625493039139365   1.0000000
N2   N   0.277504730331571   0.222086853031625   0.626765036663340   1.0000000
N2   N   0.777913146968239   0.722495269668553   0.626765036663340   1.0000000
N2   N   0.611248789366829   0.222086853031625   0.626765036663340   1.0000000
N2   N   0.944417591687752   0.222168516708466   0.623845626808689   1.0000000
N2   N   0.277783106327390   0.722216893672499   0.125322226347930   1.0000000
N2   N   0.110915916493741   0.222124624913530   0.125098662549474   1.0000000
N2   N   0.444454160338779   0.222241654010834   0.123907400041763   1.0000000
N2   N   0.611248789366829   0.722495269668553   0.123234963336821   1.0000000
N2   N   0.944431381465369   0.722237269141246   0.124506960860673   1.0000000
N2   N   0.777875375086397   0.222124624913530   0.125098662549475   1.0000000
N2   N   0.111097689441189   0.888902310558909   0.624863547926478   1.0000000
N2   N   0.444471287784367   0.888902310558909   0.624863547926478   1.0000000
N2   N   0.277504730331571   0.388751210633284   0.626765036663340   1.0000000
N2   N   0.611424264579427   0.388575735420457   0.626532293396447   1.0000000
N2   N   0.777875375086397   0.889084083506197   0.624901337450523   1.0000000
N2   N   0.944474107552512   0.388827976790837   0.624866419930894   1.0000000
N2   N   0.111020535904740   0.388827976790837   0.125133580069233   1.0000000
N2   N   0.277783106327390   0.888899545988109   0.125322226347928   1.0000000
N2   N   0.611172023209221   0.888979464095195   0.125133580069230   1.0000000
N2   N   0.443818137507472   0.388575735420457   0.123467706603561   1.0000000
N2   N   0.944474107552512   0.888979464095195   0.125133580069231   1.0000000
N2   N   0.777913146968239   0.388751210633284   0.123234963336821   1.0000000
N2   N   0.277762730858847   0.555527445657593   0.625493039139365   1.0000000
N2   N   0.111020535904740   0.055525892447274   0.624866419930894   1.0000000
N2   N   0.611424264579408   0.556181862492414   0.626532293396447   1.0000000
N2   N   0.444472554342555   0.055568618534681   0.625493039139365   1.0000000
N2   N   0.944431381465369   0.555527445657593   0.625493039139365   1.0000000
N2   N   0.111097689441189   0.555528712215764   0.125136452073568   1.0000000
N2   N   0.777831483291525   0.055582408312438   0.623845626808689   1.0000000
N2   N   0.277762730858847   0.055568618534681   0.124506960860672   1.0000000
N2   N   0.444454160338779   0.555545839661395   0.123907400041763   1.0000000
N2   N   0.777758345989095   0.555545839661395   0.123907400041763   1.0000000
N2   N   0.611172023209221   0.055525892447274   0.125133580069231   1.0000000
N2   N   0.444454160338796   0.555545839661395   0.626092599958360   1.0000000
N2   N   0.944417591687752   0.055582408312437   0.126154373191422   1.0000000
N2   N   0.277783106327390   0.722216893672499   0.624677773652006   1.0000000
N2   N   0.110915916493741   0.222124624913530   0.624901337450523   1.0000000
N2   N   0.444454160338779   0.222241654010834   0.626092599958360   1.0000000
N2   N   0.611248789366829   0.722495269668553   0.626765036663340   1.0000000
N2   N   0.944431381465369   0.722237269141246   0.625493039139365   1.0000000
N2   N   0.777875375086397   0.222124624913530   0.624901337450523   1.0000000
N2   N   0.111100454011965   0.722216893672499   0.125322226347928   1.0000000
N2   N   0.444472554342555   0.722237269141246   0.124506960860669   1.0000000
N2   N   0.277504730331571   0.222086853031625   0.123234963336822   1.0000000
N2   N   0.777913146968239   0.722495269668553   0.123234963336822   1.0000000
N2   N   0.611248789366829   0.222086853031625   0.123234963336822   1.0000000
N2   N   0.944417591687752   0.222168516708466   0.126154373191423   1.0000000
N2   N   0.111020535904740   0.388827976790837   0.624866419930894   1.0000000
N2   N   0.277783106327390   0.888899545988109   0.624677773652006   1.0000000
N2   N   0.611172023209221   0.888979464095195   0.624866419930894   1.0000000
N2   N   0.443818137507472   0.388575735420457   0.626532293396450   1.0000000
N2   N   0.944474107552512   0.888979464095195   0.624866419930894   1.0000000
N2   N   0.111097689441189   0.888902310558909   0.125136452073568   1.0000000
N2   N   0.777913146968239   0.388751210633284   0.626765036663340   1.0000000
N2   N   0.444471287784367   0.888902310558909   0.125136452073568   1.0000000
N2   N   0.277504730331571   0.388751210633284   0.123234963336822   1.0000000
N2   N   0.277762730858847   0.555527445657593   0.124506960860672   1.0000000
N2   N   0.611424264579408   0.388575735420457   0.123467706603560   1.0000000
N2   N   0.777875375086397   0.889084083506197   0.125098662549475   1.0000000
N2   N   0.944474107552512   0.388827976790837   0.125133580069230   1.0000000
N2   N   0.111097689441189   0.555528712215764   0.624863547926478   1.0000000
N2   N   0.277762730858847   0.055568618534681   0.625493039139365   1.0000000
N2   N   0.777758345989095   0.555545839661395   0.626092599958360   1.0000000
N2   N   0.611172023209221   0.055525892447274   0.624866419930894   1.0000000
N2   N   0.944417591687752   0.055582408312436   0.623845626808689   1.0000000
N2   N   0.054180288174909   0.110157003363608   0.375000000000000   1.0000000
N2   N   0.555864332561489   0.622740889831786   0.375000000000000   1.0000000
N2   N   0.387453136843189   0.108239607019511   0.375000000000000   1.0000000
N2   N   0.891760392980278   0.612546863156848   0.375000000000000   1.0000000
N2   N   0.722643381855151   0.110157003363608   0.375000000000000   1.0000000
N2   N   0.055591669302166   0.777795515615290   0.875000000000000   1.0000000
N2   N   0.388870512979789   0.777795515615290   0.875000000000000   1.0000000
N2   N   0.222262761158077   0.277798047245725   0.875000000000000   1.0000000
N2   N   0.722201952754123   0.777737238841886   0.875000000000000   1.0000000
N2   N   0.555496363550938   0.277731321589129   0.875000000000000   1.0000000
N2   N   0.888882967801441   0.277784834530175   0.875000000000000   1.0000000
N2   N   0.222222222222221   0.777777777777779   0.375000000000000   1.0000000
N2   N   0.054180288174909   0.277356618144571   0.375000000000000   1.0000000
N2   N   0.377259110168335   0.266456776063249   0.375000000000000   1.0000000
N2   N   0.555010309670102   0.782442679222352   0.375000000000000   1.0000000
N2   N   0.894099036218846   0.782442679222351   0.375000000000000   1.0000000
N2   N   0.724471957227082   0.275528042772912   0.375000000000000   1.0000000
N2   N   0.055557213959076   0.944442786041149   0.875000000000000   1.0000000
N2   N   0.388870512979789   0.944408330697709   0.875000000000000   1.0000000
N2   N   0.222227596830307   0.444469271492589   0.875000000000000   1.0000000
N2   N   0.555555555555557   0.444444444444443   0.875000000000000   1.0000000
N2   N   0.722215165469702   0.944431466604507   0.875000000000000   1.0000000
N2   N   0.888908341329113   0.444469271492589   0.875000000000000   1.0000000
N2   N   0.055842062379929   0.445017458093136   0.375000000000000   1.0000000
N2   N   0.221783749886440   0.943178717072234   0.375000000000000   1.0000000
N2   N   0.554982541906565   0.944157937620158   0.375000000000000   1.0000000
N2   N   0.377259110168335   0.444135667438574   0.375000000000000   1.0000000
N2   N   0.889842996636256   0.945819711825261   0.375000000000000   1.0000000
N2   N   0.733543223936656   0.444135667438575   0.375000000000000   1.0000000
N2   N   0.222204484384666   0.611129487019984   0.875000000000000   1.0000000
N2   N   0.055568533395631   0.111117032198764   0.875000000000000   1.0000000
N2   N   0.555496363550938   0.611098375295268   0.875000000000000   1.0000000
N2   N   0.388848122678626   0.111029578690582   0.875000000000000   1.0000000
N2   N   0.888970421309406   0.611151877321236   0.875000000000000   1.0000000
N2   N   0.056821282927596   0.611938366147319   0.375000000000000   1.0000000
N2   N   0.722215165469702   0.111117032198764   0.875000000000000   1.0000000
N2   N   0.217557320777614   0.105900963781064   0.375000000000000   1.0000000
N2   N   0.387453136843189   0.612546863156848   0.375000000000000   1.0000000
N2   N   0.733543223936656   0.622740889831786   0.375000000000000   1.0000000
N2   N   0.555010309670093   0.105900963781064   0.375000000000000   1.0000000
N2   N   0.388848122678626   0.611151877321236   0.875000000000000   1.0000000
N2   N   0.888888888888886   0.111111111111114   0.375000000000000   1.0000000
N2   N   0.222222222222221   0.777777777777779   0.875000000000000   1.0000000
N2   N   0.055568533395631   0.277784834530175   0.875000000000000   1.0000000
N2   N   0.388901624704823   0.277731321589128   0.875000000000000   1.0000000
N2   N   0.555530728507422   0.777772403169743   0.875000000000000   1.0000000
N2   N   0.888908341329113   0.777772403169781   0.875000000000000   1.0000000
N2   N   0.722201952754123   0.277798047245725   0.875000000000000   1.0000000
N2   N   0.056821282927595   0.778216250113471   0.375000000000000   1.0000000
N2   N   0.388061633852582   0.778216250113471   0.375000000000000   1.0000000
N2   N   0.217722752212262   0.275528042772912   0.375000000000000   1.0000000
N2   N   0.724471957227082   0.782277247787512   0.375000000000000   1.0000000
N2   N   0.555864332561489   0.266456776063249   0.375000000000000   1.0000000
N2   N   0.889842996636256   0.277356618144571   0.375000000000000   1.0000000
N2   N   0.055557213959076   0.444447761251518   0.875000000000000   1.0000000
N2   N   0.222204484384666   0.944408330697709   0.875000000000000   1.0000000
N2   N   0.555552238748336   0.944442786041149   0.875000000000000   1.0000000
N2   N   0.388901624704823   0.444503636449066   0.875000000000000   1.0000000
N2   N   0.888882967801441   0.944431466604507   0.875000000000000   1.0000000
N2   N   0.055842062379929   0.944157937620158   0.375000000000000   1.0000000
N2   N   0.722268678410845   0.444503636449066   0.875000000000000   1.0000000
N2   N   0.388061633852582   0.943178717072234   0.375000000000000   1.0000000
N2   N   0.217557320777614   0.444989690329868   0.375000000000000   1.0000000
N2   N   0.221783749886440   0.611938366147319   0.375000000000000   1.0000000
N2   N   0.722643381855151   0.945819711825261   0.375000000000000   1.0000000
N2   N   0.894099036218846   0.444989690329868   0.375000000000000   1.0000000
N2   N   0.055591669302166   0.611129487019984   0.875000000000000   1.0000000
N2   N   0.222227596830315   0.111091658671018   0.875000000000000   1.0000000
N2   N   0.722268678410845   0.611098375295268   0.875000000000000   1.0000000
N2   N   0.555530728507422   0.111091658671018   0.875000000000000   1.0000000
N2   N   0.888888888888886   0.111111111111114   0.875000000000000   1.0000000
B2   B   0.108797367943082   0.053623012049653   0.375000000000000   1.0000000
B2   B   0.624146229207129   0.581625791747240   0.375000000000000   1.0000000
B2   B   0.443892393763787   0.053825553649776   0.375000000000000   1.0000000
B2   B   0.946174446350076   0.556107606236035   0.375000000000000   1.0000000
B2   B   0.778242616222080   0.055787974777721   0.375000000000000   1.0000000
B2   B   0.111094341486449   0.722213837410127   0.875000000000000   1.0000000
B2   B   0.444413436616436   0.722139269872017   0.875000000000000   1.0000000
B2   B   0.278003958652411   0.222353494854851   0.875000000000000   1.0000000
B2   B   0.777646505145175   0.721996041347192   0.875000000000000   1.0000000
B2   B   0.611016202869154   0.222353494854851   0.875000000000000   1.0000000
B2   B   0.944465102850885   0.222263539035223   0.875000000000000   1.0000000
B2   B   0.277482480628508   0.722517519371661   0.375000000000000   1.0000000
B2   B   0.108765379202994   0.221049356268132   0.375000000000000   1.0000000
B2   B   0.443319252942143   0.219971839217574   0.375000000000000   1.0000000
B2   B   0.611967727216172   0.729836399336886   0.375000000000000   1.0000000
B2   B   0.946174446350076   0.723400173447414   0.375000000000000   1.0000000
B2   B   0.778950643731894   0.221049356268132   0.375000000000000   1.0000000
B2   B   0.111123549055247   0.888876450944826   0.875000000000000   1.0000000
B2   B   0.444419568556244   0.888876450944826   0.875000000000000   1.0000000
B2   B   0.278003958652411   0.388983797131029   0.875000000000000   1.0000000
B2   B   0.611016848985881   0.388983151014119   0.875000000000000   1.0000000
B2   B   0.777698713573712   0.888730760481215   0.875000000000000   1.0000000
B2   B   0.944411117985430   0.388942472513559   0.875000000000000   1.0000000
B2   B   0.108797367943082   0.388507689226685   0.375000000000000   1.0000000
B2   B   0.277482480628508   0.888298294590344   0.375000000000000   1.0000000
B2   B   0.611492310773392   0.891202632057009   0.375000000000000   1.0000000
B2   B   0.418374208252665   0.375853770793044   0.375000000000000   1.0000000
B2   B   0.946376987950177   0.891202632057009   0.375000000000000   1.0000000
B2   B   0.784535338787513   0.388032272783766   0.375000000000000   1.0000000
B2   B   0.277860730128090   0.555586563383649   0.875000000000000   1.0000000
B2   B   0.111198021194887   0.055588882014621   0.875000000000000   1.0000000
B2   B   0.611016848985881   0.555367031305091   0.875000000000000   1.0000000
B2   B   0.444413436616427   0.055607500077811   0.875000000000000   1.0000000
B2   B   0.944392499922212   0.555586563383649   0.875000000000000   1.0000000
B2   B   0.111330140661863   0.555993614656790   0.375000000000000   1.0000000
B2   B   0.777736460964870   0.055534897149078   0.875000000000000   1.0000000
B2   B   0.276599826552472   0.053825553649775   0.375000000000000   1.0000000
B2   B   0.443319252942143   0.556680747057753   0.375000000000000   1.0000000
B2   B   0.780028160782378   0.556680747057753   0.375000000000000   1.0000000
B2   B   0.611492310773393   0.053623012049653   0.375000000000000   1.0000000
B2   B   0.444502520434704   0.555497479565432   0.875000000000000   1.0000000
B2   B   0.944212025222422   0.055787974777721   0.375000000000000   1.0000000
B2   B   0.277786162590116   0.722213837410127   0.875000000000000   1.0000000
B2   B   0.111269239518959   0.222301286426120   0.875000000000000   1.0000000
B2   B   0.444502520434704   0.222338374202711   0.875000000000000   1.0000000
B2   B   0.611016202869153   0.721996041347192   0.875000000000000   1.0000000
B2   B   0.944392499922212   0.722139269872017   0.875000000000000   1.0000000
B2   B   0.777698713573712   0.222301286426120   0.875000000000000   1.0000000
B2   B   0.111701705409520   0.722517519371661   0.375000000000000   1.0000000
B2   B   0.443892393763787   0.723400173447414   0.375000000000000   1.0000000
B2   B   0.270163600663017   0.215464661212547   0.375000000000000   1.0000000
B2   B   0.784535338787513   0.729836399336886   0.375000000000000   1.0000000
B2   B   0.611967727216172   0.215464661212547   0.375000000000000   1.0000000
B2   B   0.944212025222422   0.221757383777867   0.375000000000000   1.0000000
B2   B   0.111198021194887   0.388942472513560   0.875000000000000   1.0000000
B2   B   0.277786162590116   0.888905658513560   0.875000000000000   1.0000000
B2   B   0.611057527486329   0.888801978805417   0.875000000000000   1.0000000
B2   B   0.444632968694973   0.388983151014130   0.875000000000000   1.0000000
B2   B   0.944411117985430   0.888801978805417   0.875000000000000   1.0000000
B2   B   0.111330140661864   0.888669859338213   0.375000000000000   1.0000000
B2   B   0.777646505145175   0.388983797131029   0.875000000000000   1.0000000
B2   B   0.444006385342922   0.888669859338213   0.375000000000000   1.0000000
B2   B   0.270163600663017   0.388032272783763   0.375000000000000   1.0000000
B2   B   0.276599826552472   0.556107606236035   0.375000000000000   1.0000000
B2   B   0.624146229207129   0.375853770793044   0.375000000000000   1.0000000
B2   B   0.778950643731894   0.891234620796786   0.375000000000000   1.0000000
B2   B   0.946376987950177   0.388507689226685   0.375000000000000   1.0000000
B2   B   0.111123549055249   0.555580431443828   0.875000000000000   1.0000000
B2   B   0.277860730128090   0.055607500077811   0.875000000000000   1.0000000
B2   B   0.777661625797256   0.555497479565432   0.875000000000000   1.0000000
B2   B   0.611057527486329   0.055588882014621   0.875000000000000   1.0000000
B2   B   0.944465102850885   0.055534897149078   0.875000000000000   1.0000000
B2   B   0.055543084305450   0.111141940989420   0.125793406957836   1.0000000
B2   B   0.555943278288090   0.610864750855980   0.124046195215182   1.0000000
B2   B   0.389169128438412   0.111671590210143   0.124661230176166   1.0000000
B2   B   0.888328409789832   0.610830871561604   0.124661230176166   1.0000000
B2   B   0.722265523350683   0.111141940989421   0.125793406957836   1.0000000
B2   B   0.055360369321027   0.777699183947681   0.624748326919713   1.0000000
B2   B   0.389005481293443   0.777699183947681   0.624748326919713   1.0000000
B2   B   0.222277287211974   0.277805310272699   0.625748743422122   1.0000000
B2   B   0.722194689727378   0.777722712787938   0.625748743422122   1.0000000
B2   B   0.555943278288090   0.278411860765747   0.625953804784745   1.0000000
B2   B   0.888858059010447   0.277734476649412   0.624206593042084   1.0000000
B2   B   0.222222222222221   0.777777777777779   0.125604167175843   1.0000000
B2   B   0.055543084305450   0.277734476649412   0.125793406957836   1.0000000
B2   B   0.389135249144298   0.278411860765747   0.124046195215185   1.0000000
B2   B   0.555697989242297   0.777679766070365   0.124587393401516   1.0000000
B2   B   0.888648443494744   0.777679766070365   0.124587393401516   1.0000000
B2   B   0.722194689727378   0.277805310272699   0.124251256577972   1.0000000
B2   B   0.055513125790135   0.944486874209601   0.624555941080703   1.0000000
B2   B   0.389005481293452   0.944639630678958   0.624748326919713   1.0000000
B2   B   0.222320233929582   0.444302010757729   0.625412606598596   1.0000000
B2   B   0.555555555555557   0.444444444444443   0.614054449122597   1.0000000
B2   B   0.722265523350683   0.944456915694424   0.624206593042084   1.0000000
B2   B   0.888648443494744   0.444302010757728   0.625412606598596   1.0000000
B2   B   0.055513125790135   0.444359584913631   0.125444058919373   1.0000000
B2   B   0.222300816052278   0.944639630678958   0.125251673080350   1.0000000
B2   B   0.555640415086409   0.944486874209601   0.125444058919373   1.0000000
B2   B   0.389135249144298   0.444056721711820   0.124046195215182   1.0000000
B2   B   0.888858059010447   0.944456915694424   0.125793406957836   1.0000000
B2   B   0.721588139234425   0.444056721711820   0.124046195215185   1.0000000
B2   B   0.222300816052278   0.610994518706790   0.624748326919713   1.0000000
B2   B   0.055543084305450   0.111141940989420   0.624206593042084   1.0000000
B2   B   0.555943278288090   0.610864750855980   0.625953804784745   1.0000000
B2   B   0.389169128438412   0.111671590210141   0.625338769823963   1.0000000
B2   B   0.888328409789832   0.610830871561607   0.625338769823963   1.0000000
B2   B   0.055360369321026   0.610994518706790   0.125251673080350   1.0000000
B2   B   0.722265523350683   0.111141940989420   0.624206593042084   1.0000000
B2   B   0.222320233929582   0.111351556505200   0.124587393401516   1.0000000
B2   B   0.389169128438412   0.610830871561604   0.124661230176166   1.0000000
B2   B   0.721588139234425   0.610864750855980   0.124046195215185   1.0000000
B2   B   0.555697989242297   0.111351556505200   0.124587393401516   1.0000000
B2   B   0.389169128438412   0.610830871561604   0.625338769823963   1.0000000
B2   B   0.888888888888886   0.111111111111114   0.126542297833992   1.0000000
B2   B   0.222222222222221   0.777777777777779   0.624395832824052   1.0000000
B2   B   0.055543084305450   0.277734476649412   0.624206593042084   1.0000000
B2   B   0.389135249144298   0.278411860765747   0.625953804784745   1.0000000
B2   B   0.555697989242297   0.777679766070366   0.625412606598596   1.0000000
B2   B   0.888648443494744   0.777679766070365   0.625412606598596   1.0000000
B2   B   0.722194689727378   0.277805310272699   0.625748743422122   1.0000000
B2   B   0.055360369321026   0.777699183947681   0.125251673080350   1.0000000
B2   B   0.389005481293443   0.777699183947681   0.125251673080350   1.0000000
B2   B   0.222277287211974   0.277805310272699   0.124251256577972   1.0000000
B2   B   0.722194689727378   0.777722712787938   0.124251256577972   1.0000000
B2   B   0.555943278288090   0.278411860765747   0.124046195215182   1.0000000
B2   B   0.888858059010447   0.277734476649412   0.125793406957836   1.0000000
B2   B   0.055513125790135   0.444359584913631   0.624555941080703   1.0000000
B2   B   0.222300816052278   0.944639630678958   0.624748326919713   1.0000000
B2   B   0.555640415086409   0.944486874209601   0.624555941080703   1.0000000
B2   B   0.389135249144298   0.444056721711820   0.625953804784745   1.0000000
B2   B   0.888858059010447   0.944456915694424   0.624206593042084   1.0000000
B2   B   0.055513125790135   0.944486874209601   0.125444058919373   1.0000000
B2   B   0.721588139234425   0.444056721711820   0.625953804784761   1.0000000
B2   B   0.389005481293452   0.944639630678958   0.125251673080350   1.0000000
B2   B   0.222320233929582   0.444302010757729   0.124587393401516   1.0000000
B2   B   0.222300816052278   0.610994518706790   0.125251673080350   1.0000000
B2   B   0.555555555555557   0.444444444444443   0.135945550877502   1.0000000
B2   B   0.722265523350683   0.944456915694424   0.125793406957836   1.0000000
B2   B   0.888648443494744   0.444302010757729   0.124587393401516   1.0000000
B2   B   0.055360369321027   0.610994518706790   0.624748326919713   1.0000000
B2   B   0.222320233929582   0.111351556505201   0.625412606598596   1.0000000
B2   B   0.721588139234425   0.610864750855980   0.625953804784745   1.0000000
B2   B   0.555697989242297   0.111351556505200   0.625412606598596   1.0000000
B2   B   0.888888888888886   0.111111111111114   0.623457702166134   1.0000000


